@<TRIPOS>MOLECULE
*****
 34 36 0 0 0
SMALL
GASTEIGER

@<TRIPOS>ATOM
      1 C           0.0000    0.0000    0.0000 C.3     1  UNL1        0.0964
      2 C           0.0000    0.0000    0.0000 C.2     1  UNL1        0.2423
      3 O           0.0000    0.0000    0.0000 O.2     1  UNL1       -0.2733
      4 N           0.0000    0.0000    0.0000 N.am    1  UNL1       -0.1978
      5 C           0.0000    0.0000    0.0000 C.3     1  UNL1        0.1711
      6 C           0.0000    0.0000    0.0000 C.2     1  UNL1        0.2459
      7 O           0.0000    0.0000    0.0000 O.2     1  UNL1       -0.2730
      8 N           0.0000    0.0000    0.0000 N.am    1  UNL1       -0.2689
      9 C           0.0000    0.0000    0.0000 C.3     1  UNL1        0.1267
     10 C           0.0000    0.0000    0.0000 C.3     1  UNL1        0.1739
     11 O           0.0000    0.0000    0.0000 O.3     1  UNL1       -0.2212
     12 C           0.0000    0.0000    0.0000 C.3     1  UNL1        0.0639
     13 C           0.0000    0.0000    0.0000 C.3     1  UNL1        0.1562
     14 C           0.0000    0.0000    0.0000 C.2     1  UNL1        0.2598
     15 O           0.0000    0.0000    0.0000 O.2     1  UNL1       -0.2715
     16 N           0.0000    0.0000    0.0000 N.am    1  UNL1       -0.2013
     17 C           0.0000    0.0000    0.0000 C.3     1  UNL1        0.1176
     18 C           0.0000    0.0000    0.0000 C.3     1  UNL1        0.0283
     19 C           0.0000    0.0000    0.0000 C.ar    1  UNL1       -0.0026
     20 C           0.0000    0.0000    0.0000 C.ar    1  UNL1       -0.0026
     21 C           0.0000    0.0000    0.0000 C.ar    1  UNL1        0.0003
     22 C           0.0000    0.0000    0.0000 C.ar    1  UNL1        0.0072
     23 C           0.0000    0.0000    0.0000 C.ar    1  UNL1        0.0445
     24 C           0.0000    0.0000    0.0000 C.ar    1  UNL1        0.0660
     25 C           0.0000    0.0000    0.0000 C.3     1  UNL1        0.0526
     26 N           0.0000    0.0000    0.0000 N.ar    1  UNL1       -0.2406
     27 C           0.0000    0.0000    0.0000 C.ar    1  UNL1        0.1341
     28 S           0.0000    0.0000    0.0000 S.2     1  UNL1       -0.0649
     29 C           0.0000    0.0000    0.0000 C.ar    1  UNL1        0.0003
     30 C           0.0000    0.0000    0.0000 C.ar    1  UNL1       -0.0026
     31 C           0.0000    0.0000    0.0000 C.3     1  UNL1        0.0269
     32 C           0.0000    0.0000    0.0000 C.3     1  UNL1        0.0022
     33 C           0.0000    0.0000    0.0000 C.3     1  UNL1        0.0022
     34 C           0.0000    0.0000    0.0000 C.3     1  UNL1        0.0022
@<TRIPOS>BOND
     1     1     2    1
     2     2     3    2
     3     2     4   am
     4     4     5    1
     5     5     6    1
     6     6     7    2
     7     6     8   am
     8     8     9    1
     9     9    10    1
    10    10    11    1
    11    10    12    1
    12    12    13    1
    13     8    13    1
    14    13    14    1
    15    14    15    2
    16    14    16   am
    17    16    17    1
    18    17    18    1
    19    17    19    1
    20    19    20   ar
    21    20    21   ar
    22    21    22   ar
    23    22    23    1
    24    23    24   ar
    25    24    25    1
    26    24    26   ar
    27    26    27   ar
    28    27    28   ar
    29    23    28   ar
    30    22    29   ar
    31    29    30   ar
    32    19    30   ar
    33     5    31    1
    34    31    32    1
    35    31    33    1
    36    31    34    1
