@<TRIPOS>MOLECULE
*****
 30 29 0 0 0
SMALL
GASTEIGER

@<TRIPOS>ATOM
      1 C           0.0000    0.0000    0.0000 C.3     1  UNL1        0.0001
      2 C           0.0000    0.0000    0.0000 C.3     1  UNL1        0.0022
      3 C           0.0000    0.0000    0.0000 C.3     1  UNL1        0.0001
      4 C           0.0000    0.0000    0.0000 C.3     1  UNL1        0.0311
      5 C           0.0000    0.0000    0.0000 C.3     1  UNL1        0.1728
      6 N           0.0000    0.0000    0.0000 N.am    1  UNL1       -0.1956
      7 C           0.0000    0.0000    0.0000 C.2     1  UNL1        0.2737
      8 O           0.0000    0.0000    0.0000 O.2     1  UNL1       -0.2705
      9 C           0.0000    0.0000    0.0000 C.3     1  UNL1        0.2463
     10 O           0.0000    0.0000    0.0000 O.3     1  UNL1       -0.2116
     11 C           0.0000    0.0000    0.0000 C.3     1  UNL1        0.1312
     12 C           0.0000    0.0000    0.0000 C.3     1  UNL1        0.0237
     13 N           0.0000    0.0000    0.0000 N.3     1  UNL1       -0.1297
     14 C           0.0000    0.0000    0.0000 C.2     1  UNL1        0.2613
     15 O           0.0000    0.0000    0.0000 O.2     1  UNL1       -0.2715
     16 N           0.0000    0.0000    0.0000 N.am    1  UNL1       -0.2013
     17 C           0.0000    0.0000    0.0000 C.3     1  UNL1        0.1472
     18 C           0.0000    0.0000    0.0000 C.3     1  UNL1        0.1656
     19 O           0.0000    0.0000    0.0000 O.3     1  UNL1       -0.3492
     20 C           0.0000    0.0000    0.0000 C.3     1  UNL1        0.1742
     21 C           0.0000    0.0000    0.0000 C.3     1  UNL1        0.1742
     22 O           0.0000    0.0000    0.0000 O.3     1  UNL1       -0.3484
     23 C           0.0000    0.0000    0.0000 C.3     1  UNL1        0.1742
     24 C           0.0000    0.0000    0.0000 C.3     1  UNL1        0.1742
     25 O           0.0000    0.0000    0.0000 O.3     1  UNL1       -0.3492
     26 C           0.0000    0.0000    0.0000 C.3     1  UNL1        0.1656
     27 C           0.0000    0.0000    0.0000 C.3     1  UNL1        0.1476
     28 N           0.0000    0.0000    0.0000 N.am    1  UNL1       -0.1951
     29 C           0.0000    0.0000    0.0000 C.2     1  UNL1        0.3202
     30 O           0.0000    0.0000    0.0000 O.2     1  UNL1       -0.2633
@<TRIPOS>BOND
     1     1     2    1
     2     2     3    1
     3     2     4    1
     4     4     5    1
     5     5     6    1
     6     6     7   am
     7     7     8    2
     8     7     9    1
     9     9    10    1
    10     9    11    1
    11    11    12    1
    12    11    13    1
    13     5    14    1
    14    14    15    2
    15    14    16   am
    16    16    17    1
    17    17    18    1
    18    18    19    1
    19    19    20    1
    20    20    21    1
    21    21    22    1
    22    22    23    1
    23    23    24    1
    24    24    25    1
    25    25    26    1
    26    26    27    1
    27    27    28    1
    28    28    29   am
    29    29    30    2
