@<TRIPOS>MOLECULE
*****
 33 35 0 0 0
SMALL
GASTEIGER

@<TRIPOS>ATOM
      1 C           0.0000    0.0000    0.0000 C.3     1  UNL1        0.0964
      2 C           0.0000    0.0000    0.0000 C.2     1  UNL1        0.2423
      3 O           0.0000    0.0000    0.0000 O.2     1  UNL1       -0.2733
      4 N           0.0000    0.0000    0.0000 N.am    1  UNL1       -0.1978
      5 C           0.0000    0.0000    0.0000 C.3     1  UNL1        0.1711
      6 C           0.0000    0.0000    0.0000 C.2     1  UNL1        0.2459
      7 O           0.0000    0.0000    0.0000 O.2     1  UNL1       -0.2730
      8 N           0.0000    0.0000    0.0000 N.am    1  UNL1       -0.2689
      9 C           0.0000    0.0000    0.0000 C.3     1  UNL1        0.1267
     10 C           0.0000    0.0000    0.0000 C.3     1  UNL1        0.1739
     11 O           0.0000    0.0000    0.0000 O.3     1  UNL1       -0.2212
     12 C           0.0000    0.0000    0.0000 C.3     1  UNL1        0.0639
     13 C           0.0000    0.0000    0.0000 C.3     1  UNL1        0.1562
     14 C           0.0000    0.0000    0.0000 C.2     1  UNL1        0.2598
     15 O           0.0000    0.0000    0.0000 O.2     1  UNL1       -0.2715
     16 N           0.0000    0.0000    0.0000 N.am    1  UNL1       -0.1992
     17 C           0.0000    0.0000    0.0000 C.3     1  UNL1        0.1415
     18 C           0.0000    0.0000    0.0000 C.ar    1  UNL1       -0.0006
     19 C           0.0000    0.0000    0.0000 C.ar    1  UNL1       -0.0025
     20 C           0.0000    0.0000    0.0000 C.ar    1  UNL1        0.0003
     21 C           0.0000    0.0000    0.0000 C.ar    1  UNL1        0.0072
     22 C           0.0000    0.0000    0.0000 C.ar    1  UNL1        0.0445
     23 C           0.0000    0.0000    0.0000 C.ar    1  UNL1        0.0660
     24 C           0.0000    0.0000    0.0000 C.3     1  UNL1        0.0526
     25 N           0.0000    0.0000    0.0000 N.ar    1  UNL1       -0.2406
     26 C           0.0000    0.0000    0.0000 C.ar    1  UNL1        0.1341
     27 S           0.0000    0.0000    0.0000 S.2     1  UNL1       -0.0649
     28 C           0.0000    0.0000    0.0000 C.ar    1  UNL1        0.0003
     29 C           0.0000    0.0000    0.0000 C.ar    1  UNL1       -0.0025
     30 C           0.0000    0.0000    0.0000 C.3     1  UNL1        0.0269
     31 C           0.0000    0.0000    0.0000 C.3     1  UNL1        0.0022
     32 C           0.0000    0.0000    0.0000 C.3     1  UNL1        0.0022
     33 C           0.0000    0.0000    0.0000 C.3     1  UNL1        0.0022
@<TRIPOS>BOND
     1     1     2    1
     2     2     3    2
     3     2     4   am
     4     4     5    1
     5     5     6    1
     6     6     7    2
     7     6     8   am
     8     8     9    1
     9     9    10    1
    10    10    11    1
    11    10    12    1
    12    12    13    1
    13     8    13    1
    14    13    14    1
    15    14    15    2
    16    14    16   am
    17    16    17    1
    18    17    18    1
    19    18    19   ar
    20    19    20   ar
    21    20    21   ar
    22    21    22    1
    23    22    23   ar
    24    23    24    1
    25    23    25   ar
    26    25    26   ar
    27    26    27   ar
    28    22    27   ar
    29    21    28   ar
    30    28    29   ar
    31    18    29   ar
    32     5    30    1
    33    30    31    1
    34    30    32    1
    35    30    33    1
