@<TRIPOS>MOLECULE
*****
 36 39 0 0 0
SMALL
GASTEIGER

@<TRIPOS>ATOM
      1 C           0.0000    0.0000    0.0000 C.3     1  UNL1        0.1080
      2 N           0.0000    0.0000    0.0000 N.3     1  UNL1       -0.2087
      3 C           0.0000    0.0000    0.0000 C.3     1  UNL1        0.1505
      4 C           0.0000    0.0000    0.0000 C.3     1  UNL1        0.0287
      5 C           0.0000    0.0000    0.0000 C.2     1  UNL1        0.2576
      6 O           0.0000    0.0000    0.0000 O.2     1  UNL1       -0.2718
      7 N           0.0000    0.0000    0.0000 N.am    1  UNL1       -0.1967
      8 C           0.0000    0.0000    0.0000 C.3     1  UNL1        0.1713
      9 C           0.0000    0.0000    0.0000 C.2     1  UNL1        0.2457
     10 O           0.0000    0.0000    0.0000 O.2     1  UNL1       -0.2730
     11 N           0.0000    0.0000    0.0000 N.am    1  UNL1       -0.2740
     12 C           0.0000    0.0000    0.0000 C.3     1  UNL1        0.0938
     13 C           0.0000    0.0000    0.0000 C.3     1  UNL1        0.0236
     14 C           0.0000    0.0000    0.0000 C.3     1  UNL1        0.0283
     15 C           0.0000    0.0000    0.0000 C.3     1  UNL1        0.1218
     16 C           0.0000    0.0000    0.0000 C.ar    1  UNL1        0.1064
     17 N           0.0000    0.0000    0.0000 N.ar    1  UNL1       -0.2378
     18 C           0.0000    0.0000    0.0000 C.ar    1  UNL1        0.1268
     19 C           0.0000    0.0000    0.0000 C.2     1  UNL1        0.2135
     20 O           0.0000    0.0000    0.0000 O.2     1  UNL1       -0.2849
     21 C           0.0000    0.0000    0.0000 C.ar    1  UNL1        0.0406
     22 C           0.0000    0.0000    0.0000 C.ar    1  UNL1        0.0055
     23 C           0.0000    0.0000    0.0000 C.ar    1  UNL1        0.0297
     24 C           0.0000    0.0000    0.0000 C.ar    1  UNL1        0.1401
     25 F           0.0000    0.0000    0.0000 F       1  UNL1       -0.2042
     26 C           0.0000    0.0000    0.0000 C.ar    1  UNL1        0.0297
     27 C           0.0000    0.0000    0.0000 C.ar    1  UNL1        0.0055
     28 C           0.0000    0.0000    0.0000 C.ar    1  UNL1        0.0590
     29 S           0.0000    0.0000    0.0000 S.2     1  UNL1       -0.0685
     30 C           0.0000    0.0000    0.0000 C.3     1  UNL1        0.0317
     31 C           0.0000    0.0000    0.0000 C.3     1  UNL1        0.0196
     32 C           0.0000    0.0000    0.0000 C.3     1  UNL1        0.0722
     33 N           0.0000    0.0000    0.0000 N.3     1  UNL1       -0.2715
     34 C           0.0000    0.0000    0.0000 C.3     1  UNL1        0.0896
     35 C           0.0000    0.0000    0.0000 C.3     1  UNL1        0.0722
     36 C           0.0000    0.0000    0.0000 C.3     1  UNL1        0.0196
@<TRIPOS>BOND
     1     1     2    1
     2     2     3    1
     3     3     4    1
     4     3     5    1
     5     5     6    2
     6     5     7   am
     7     7     8    1
     8     8     9    1
     9     9    10    2
    10     9    11   am
    11    11    12    1
    12    12    13    1
    13    13    14    1
    14    14    15    1
    15    11    15    1
    16    15    16    1
    17    16    17   ar
    18    17    18   ar
    19    18    19    1
    20    19    20    2
    21    19    21    1
    22    21    22   ar
    23    22    23   ar
    24    23    24   ar
    25    24    25    1
    26    24    26   ar
    27    26    27   ar
    28    21    27   ar
    29    18    28   ar
    30    28    29   ar
    31    16    29   ar
    32     8    30    1
    33    30    31    1
    34    31    32    1
    35    32    33    1
    36    33    34    1
    37    33    35    1
    38    35    36    1
    39    30    36    1
