@<TRIPOS>MOLECULE
*****
 16 17 0 0 0
SMALL
GASTEIGER

@<TRIPOS>ATOM
      1 C           0.0000    0.0000    0.0000 C.3     1  UNL1        0.2525
      2 O           0.0000    0.0000    0.0000 O.3     1  UNL1       -0.4702
      3 C           0.0000    0.0000    0.0000 C.ar    1  UNL1        0.1523
      4 C           0.0000    0.0000    0.0000 C.ar    1  UNL1        0.0382
      5 C           0.0000    0.0000    0.0000 C.ar    1  UNL1        0.0032
      6 C           0.0000    0.0000    0.0000 C.ar    1  UNL1        0.0015
      7 C           0.0000    0.0000    0.0000 C.ar    1  UNL1        0.0180
      8 C           0.0000    0.0000    0.0000 C.ar    1  UNL1        0.0893
      9 N           0.0000    0.0000    0.0000 N.am    1  UNL1       -0.2382
     10 C           0.0000    0.0000    0.0000 C.3     1  UNL1        0.1096
     11 C           0.0000    0.0000    0.0000 C.3     1  UNL1        0.1092
     12 C           0.0000    0.0000    0.0000 C.2     1  UNL1        0.2509
     13 O           0.0000    0.0000    0.0000 O.2     1  UNL1       -0.2728
     14 N           0.0000    0.0000    0.0000 N.am    1  UNL1       -0.1271
     15 C           0.0000    0.0000    0.0000 C.2     1  UNL1        0.3337
     16 O           0.0000    0.0000    0.0000 O.2     1  UNL1       -0.2500
@<TRIPOS>BOND
     1     1     2    1
     2     2     3    1
     3     3     4   ar
     4     4     5   ar
     5     5     6   ar
     6     6     7   ar
     7     7     8   ar
     8     3     8   ar
     9     8     9    1
    10     9    10    1
    11    10    11    1
    12    11    12    1
    13    12    13    2
    14    12    14   am
    15    14    15   am
    16     9    15   am
    17    15    16    2
