@<TRIPOS>MOLECULE
*****
 19 19 0 0 0
SMALL
GASTEIGER

@<TRIPOS>ATOM
      1 C           0.0000    0.0000    0.0000 C.3     1  UNL1        0.0001
      2 C           0.0000    0.0000    0.0000 C.3     1  UNL1        0.0018
      3 C           0.0000    0.0000    0.0000 C.3     1  UNL1        0.0001
      4 C           0.0000    0.0000    0.0000 C.3     1  UNL1        0.0234
      5 C           0.0000    0.0000    0.0000 C.3     1  UNL1        0.1152
      6 N           0.0000    0.0000    0.0000 N.am    1  UNL1       -0.2033
      7 C           0.0000    0.0000    0.0000 C.2     1  UNL1        0.2733
      8 O           0.0000    0.0000    0.0000 O.2     1  UNL1       -0.2705
      9 C           0.0000    0.0000    0.0000 C.3     1  UNL1        0.2467
     10 O           0.0000    0.0000    0.0000 O.3     1  UNL1       -0.2116
     11 C           0.0000    0.0000    0.0000 C.3     1  UNL1        0.1355
     12 N           0.0000    0.0000    0.0000 N.3     1  UNL1       -0.1293
     13 C           0.0000    0.0000    0.0000 C.3     1  UNL1        0.0485
     14 C           0.0000    0.0000    0.0000 C.ar    1  UNL1       -0.0206
     15 C           0.0000    0.0000    0.0000 C.ar    1  UNL1       -0.0042
     16 C           0.0000    0.0000    0.0000 C.ar    1  UNL1       -0.0003
     17 C           0.0000    0.0000    0.0000 C.ar    1  UNL1       -0.0000
     18 C           0.0000    0.0000    0.0000 C.ar    1  UNL1       -0.0003
     19 C           0.0000    0.0000    0.0000 C.ar    1  UNL1       -0.0042
@<TRIPOS>BOND
     1     1     2    1
     2     2     3    1
     3     2     4    1
     4     4     5    1
     5     5     6    1
     6     6     7   am
     7     7     8    2
     8     7     9    1
     9     9    10    1
    10     9    11    1
    11    11    12    1
    12    11    13    1
    13    13    14    1
    14    14    15   ar
    15    15    16   ar
    16    16    17   ar
    17    17    18   ar
    18    18    19   ar
    19    14    19   ar
