@<TRIPOS>MOLECULE
*****
 17 18 0 0 0
SMALL
GASTEIGER

@<TRIPOS>ATOM
      1 C           0.0000    0.0000    0.0000 C.3     1  UNL1        0.0304
      2 C           0.0000    0.0000    0.0000 C.2     1  UNL1       -0.0282
      3 C           0.0000    0.0000    0.0000 C.2     1  UNL1       -0.0022
      4 C           0.0000    0.0000    0.0000 C.2     1  UNL1        0.0509
      5 C           0.0000    0.0000    0.0000 C.2     1  UNL1        0.0044
      6 C           0.0000    0.0000    0.0000 C.2     1  UNL1        0.2493
      7 O           0.0000    0.0000    0.0000 O.2     1  UNL1       -0.2699
      8 N           0.0000    0.0000    0.0000 N.am    1  UNL1       -0.2652
      9 C           0.0000    0.0000    0.0000 C.3     1  UNL1        0.1549
     10 C           0.0000    0.0000    0.0000 C.3     1  UNL1        0.0389
     11 C           0.0000    0.0000    0.0000 C.3     1  UNL1        0.0895
     12 C           0.0000    0.0000    0.0000 C.2     1  UNL1        0.2480
     13 O           0.0000    0.0000    0.0000 O.2     1  UNL1       -0.2729
     14 N           0.0000    0.0000    0.0000 N.am    1  UNL1       -0.1434
     15 C           0.0000    0.0000    0.0000 C.2     1  UNL1        0.2660
     16 O           0.0000    0.0000    0.0000 O.2     1  UNL1       -0.2711
     17 C           0.0000    0.0000    0.0000 C.3     1  UNL1        0.1207
@<TRIPOS>BOND
     1     1     2    1
     2     2     3    2
     3     3     4    1
     4     4     5    2
     5     4     6    1
     6     6     7    2
     7     6     8   am
     8     8     9    1
     9     9    10    1
    10    10    11    1
    11    11    12    1
    12    12    13    2
    13    12    14   am
    14    14    15   am
    15     9    15    1
    16    15    16    2
    17     8    17    1
    18     3    17    1
