@<TRIPOS>MOLECULE
*****
 23 26 0 0 0
SMALL
GASTEIGER

@<TRIPOS>ATOM
      1 O           0.0000    0.0000    0.0000 O.2     1  UNL1       -0.2729
      2 C           0.0000    0.0000    0.0000 C.2     1  UNL1        0.2480
      3 C           0.0000    0.0000    0.0000 C.3     1  UNL1        0.0895
      4 C           0.0000    0.0000    0.0000 C.3     1  UNL1        0.0394
      5 C           0.0000    0.0000    0.0000 C.3     1  UNL1        0.1616
      6 N           0.0000    0.0000    0.0000 N.am    1  UNL1       -0.2158
      7 C           0.0000    0.0000    0.0000 C.2     1  UNL1        0.2553
      8 O           0.0000    0.0000    0.0000 O.2     1  UNL1       -0.2695
      9 C           0.0000    0.0000    0.0000 C.ar    1  UNL1        0.0541
     10 C           0.0000    0.0000    0.0000 C.ar    1  UNL1        0.0045
     11 C           0.0000    0.0000    0.0000 C.ar    1  UNL1        0.0001
     12 C           0.0000    0.0000    0.0000 C.ar    1  UNL1        0.0000
     13 C           0.0000    0.0000    0.0000 C.ar    1  UNL1        0.0003
     14 C           0.0000    0.0000    0.0000 C.ar    1  UNL1        0.0000
     15 C           0.0000    0.0000    0.0000 C.ar    1  UNL1        0.0001
     16 C           0.0000    0.0000    0.0000 C.ar    1  UNL1        0.0045
     17 C           0.0000    0.0000    0.0000 C.ar    1  UNL1        0.0541
     18 C           0.0000    0.0000    0.0000 C.ar    1  UNL1        0.0088
     19 C           0.0000    0.0000    0.0000 C.2     1  UNL1        0.2553
     20 O           0.0000    0.0000    0.0000 O.2     1  UNL1       -0.2695
     21 C           0.0000    0.0000    0.0000 C.2     1  UNL1        0.2664
     22 O           0.0000    0.0000    0.0000 O.2     1  UNL1       -0.2711
     23 N           0.0000    0.0000    0.0000 N.am    1  UNL1       -0.1434
@<TRIPOS>BOND
     1     1     2    2
     2     2     3    1
     3     3     4    1
     4     4     5    1
     5     5     6    1
     6     6     7   am
     7     7     8    2
     8     7     9    1
     9     9    10   ar
    10    10    11   ar
    11    11    12   ar
    12    12    13   ar
    13    13    14   ar
    14    14    15   ar
    15    15    16   ar
    16    16    17   ar
    17    17    18   ar
    18     9    18   ar
    19    13    18   ar
    20    17    19    1
    21     6    19   am
    22    19    20    2
    23     5    21    1
    24    21    22    2
    25    21    23   am
    26     2    23   am
