@<TRIPOS>MOLECULE
*****
 38 41 0 0 0
SMALL
GASTEIGER

@<TRIPOS>ATOM
      1 C           0.0000    0.0000    0.0000 C.3     1  UNL1        0.1080
      2 N           0.0000    0.0000    0.0000 N.3     1  UNL1       -0.2087
      3 C           0.0000    0.0000    0.0000 C.3     1  UNL1        0.1505
      4 C           0.0000    0.0000    0.0000 C.3     1  UNL1        0.0287
      5 C           0.0000    0.0000    0.0000 C.2     1  UNL1        0.2576
      6 O           0.0000    0.0000    0.0000 O.2     1  UNL1       -0.2718
      7 N           0.0000    0.0000    0.0000 N.am    1  UNL1       -0.1967
      8 C           0.0000    0.0000    0.0000 C.3     1  UNL1        0.1712
      9 C           0.0000    0.0000    0.0000 C.2     1  UNL1        0.2458
     10 O           0.0000    0.0000    0.0000 O.2     1  UNL1       -0.2730
     11 N           0.0000    0.0000    0.0000 N.am    1  UNL1       -0.2716
     12 C           0.0000    0.0000    0.0000 C.3     1  UNL1        0.0939
     13 C           0.0000    0.0000    0.0000 C.3     1  UNL1        0.0237
     14 C           0.0000    0.0000    0.0000 C.3     1  UNL1        0.0310
     15 C           0.0000    0.0000    0.0000 C.3     1  UNL1        0.1535
     16 C           0.0000    0.0000    0.0000 C.2     1  UNL1        0.2595
     17 O           0.0000    0.0000    0.0000 O.2     1  UNL1       -0.2716
     18 N           0.0000    0.0000    0.0000 N.am    1  UNL1       -0.2033
     19 C           0.0000    0.0000    0.0000 C.3     1  UNL1        0.1238
     20 C           0.0000    0.0000    0.0000 C.3     1  UNL1        0.0662
     21 C           0.0000    0.0000    0.0000 C.ar    1  UNL1       -0.0167
     22 C           0.0000    0.0000    0.0000 C.ar    1  UNL1       -0.0039
     23 C           0.0000    0.0000    0.0000 C.ar    1  UNL1       -0.0003
     24 C           0.0000    0.0000    0.0000 C.ar    1  UNL1       -0.0000
     25 C           0.0000    0.0000    0.0000 C.ar    1  UNL1       -0.0003
     26 C           0.0000    0.0000    0.0000 C.ar    1  UNL1       -0.0039
     27 C           0.0000    0.0000    0.0000 C.ar    1  UNL1       -0.0167
     28 C           0.0000    0.0000    0.0000 C.ar    1  UNL1       -0.0039
     29 C           0.0000    0.0000    0.0000 C.ar    1  UNL1       -0.0003
     30 C           0.0000    0.0000    0.0000 C.ar    1  UNL1       -0.0000
     31 C           0.0000    0.0000    0.0000 C.ar    1  UNL1       -0.0003
     32 C           0.0000    0.0000    0.0000 C.ar    1  UNL1       -0.0039
     33 C           0.0000    0.0000    0.0000 C.3     1  UNL1        0.0289
     34 C           0.0000    0.0000    0.0000 C.3     1  UNL1        0.0022
     35 C           0.0000    0.0000    0.0000 C.3     1  UNL1        0.0001
     36 C           0.0000    0.0000    0.0000 C.3     1  UNL1        0.0000
     37 C           0.0000    0.0000    0.0000 C.3     1  UNL1        0.0001
     38 C           0.0000    0.0000    0.0000 C.3     1  UNL1        0.0022
@<TRIPOS>BOND
     1     1     2    1
     2     2     3    1
     3     3     4    1
     4     3     5    1
     5     5     6    2
     6     5     7   am
     7     7     8    1
     8     8     9    1
     9     9    10    2
    10     9    11   am
    11    11    12    1
    12    12    13    1
    13    13    14    1
    14    14    15    1
    15    11    15    1
    16    15    16    1
    17    16    17    2
    18    16    18   am
    19    18    19    1
    20    19    20    1
    21    20    21    1
    22    21    22   ar
    23    22    23   ar
    24    23    24   ar
    25    24    25   ar
    26    25    26   ar
    27    21    26   ar
    28    20    27    1
    29    27    28   ar
    30    28    29   ar
    31    29    30   ar
    32    30    31   ar
    33    31    32   ar
    34    27    32   ar
    35     8    33    1
    36    33    34    1
    37    34    35    1
    38    35    36    1
    39    36    37    1
    40    37    38    1
    41    33    38    1
