@<TRIPOS>MOLECULE
*****
 17 18 0 0 0
SMALL
GASTEIGER

@<TRIPOS>ATOM
      1 C           0.0000    0.0000    0.0000 C.3     1  UNL1        0.0308
      2 C           0.0000    0.0000    0.0000 C.2     1  UNL1       -0.0215
      3 C           0.0000    0.0000    0.0000 C.2     1  UNL1        0.0470
      4 C           0.0000    0.0000    0.0000 C.2     1  UNL1        0.0017
      5 C           0.0000    0.0000    0.0000 C.2     1  UNL1       -0.0027
      6 C           0.0000    0.0000    0.0000 C.3     1  UNL1        0.1210
      7 N           0.0000    0.0000    0.0000 N.am    1  UNL1       -0.2652
      8 C           0.0000    0.0000    0.0000 C.3     1  UNL1        0.1549
      9 C           0.0000    0.0000    0.0000 C.3     1  UNL1        0.0389
     10 C           0.0000    0.0000    0.0000 C.3     1  UNL1        0.0895
     11 C           0.0000    0.0000    0.0000 C.2     1  UNL1        0.2480
     12 O           0.0000    0.0000    0.0000 O.2     1  UNL1       -0.2729
     13 N           0.0000    0.0000    0.0000 N.am    1  UNL1       -0.1434
     14 C           0.0000    0.0000    0.0000 C.2     1  UNL1        0.2660
     15 O           0.0000    0.0000    0.0000 O.2     1  UNL1       -0.2711
     16 C           0.0000    0.0000    0.0000 C.2     1  UNL1        0.2490
     17 O           0.0000    0.0000    0.0000 O.2     1  UNL1       -0.2699
@<TRIPOS>BOND
     1     1     2    1
     2     2     3    2
     3     3     4    1
     4     4     5    2
     5     4     6    1
     6     6     7    1
     7     7     8    1
     8     8     9    1
     9     9    10    1
    10    10    11    1
    11    11    12    2
    12    11    13   am
    13    13    14   am
    14     8    14    1
    15    14    15    2
    16     7    16   am
    17     3    16    1
    18    16    17    2
