@<TRIPOS>MOLECULE
*****
 14 15 0 0 0
SMALL
GASTEIGER

@<TRIPOS>ATOM
      1 O           0.0000    0.0000    0.0000 O.2     1  UNL1       -0.2728
      2 C           0.0000    0.0000    0.0000 C.2     1  UNL1        0.2509
      3 C           0.0000    0.0000    0.0000 C.3     1  UNL1        0.1092
      4 C           0.0000    0.0000    0.0000 C.3     1  UNL1        0.1094
      5 N           0.0000    0.0000    0.0000 N.am    1  UNL1       -0.2411
      6 C           0.0000    0.0000    0.0000 C.ar    1  UNL1        0.0553
      7 C           0.0000    0.0000    0.0000 C.ar    1  UNL1        0.0150
      8 C           0.0000    0.0000    0.0000 C.ar    1  UNL1        0.0013
      9 C           0.0000    0.0000    0.0000 C.ar    1  UNL1        0.0001
     10 C           0.0000    0.0000    0.0000 C.ar    1  UNL1        0.0013
     11 C           0.0000    0.0000    0.0000 C.ar    1  UNL1        0.0150
     12 C           0.0000    0.0000    0.0000 C.2     1  UNL1        0.3336
     13 O           0.0000    0.0000    0.0000 O.2     1  UNL1       -0.2500
     14 N           0.0000    0.0000    0.0000 N.am    1  UNL1       -0.1271
@<TRIPOS>BOND
     1     1     2    2
     2     2     3    1
     3     3     4    1
     4     4     5    1
     5     5     6    1
     6     6     7   ar
     7     7     8   ar
     8     8     9   ar
     9     9    10   ar
    10    10    11   ar
    11     6    11   ar
    12     5    12   am
    13    12    13    2
    14    12    14   am
    15     2    14   am
