@<TRIPOS>MOLECULE
*****
 19 21 0 0 0
SMALL
GASTEIGER

@<TRIPOS>ATOM
      1 O           0.0000    0.0000    0.0000 O.2     1  UNL1       -0.2729
      2 C           0.0000    0.0000    0.0000 C.2     1  UNL1        0.2480
      3 C           0.0000    0.0000    0.0000 C.3     1  UNL1        0.0895
      4 C           0.0000    0.0000    0.0000 C.3     1  UNL1        0.0394
      5 C           0.0000    0.0000    0.0000 C.3     1  UNL1        0.1616
      6 N           0.0000    0.0000    0.0000 N.am    1  UNL1       -0.2158
      7 C           0.0000    0.0000    0.0000 C.2     1  UNL1        0.2554
      8 O           0.0000    0.0000    0.0000 O.2     1  UNL1       -0.2695
      9 C           0.0000    0.0000    0.0000 C.ar    1  UNL1        0.0584
     10 C           0.0000    0.0000    0.0000 C.ar    1  UNL1        0.0047
     11 C           0.0000    0.0000    0.0000 C.ar    1  UNL1        0.0001
     12 C           0.0000    0.0000    0.0000 C.ar    1  UNL1        0.0001
     13 C           0.0000    0.0000    0.0000 C.ar    1  UNL1        0.0047
     14 C           0.0000    0.0000    0.0000 C.ar    1  UNL1        0.0584
     15 C           0.0000    0.0000    0.0000 C.2     1  UNL1        0.2554
     16 O           0.0000    0.0000    0.0000 O.2     1  UNL1       -0.2695
     17 C           0.0000    0.0000    0.0000 C.2     1  UNL1        0.2664
     18 O           0.0000    0.0000    0.0000 O.2     1  UNL1       -0.2711
     19 N           0.0000    0.0000    0.0000 N.am    1  UNL1       -0.1434
@<TRIPOS>BOND
     1     1     2    2
     2     2     3    1
     3     3     4    1
     4     4     5    1
     5     5     6    1
     6     6     7   am
     7     7     8    2
     8     7     9    1
     9     9    10   ar
    10    10    11   ar
    11    11    12   ar
    12    12    13   ar
    13    13    14   ar
    14     9    14   ar
    15    14    15    1
    16     6    15   am
    17    15    16    2
    18     5    17    1
    19    17    18    2
    20    17    19   am
    21     2    19   am
