@<TRIPOS>MOLECULE
*****
 34 37 0 0 0
SMALL
GASTEIGER

@<TRIPOS>ATOM
      1 C           0.0000    0.0000    0.0000 C.3     1  UNL1        0.1080
      2 N           0.0000    0.0000    0.0000 N.3     1  UNL1       -0.2087
      3 C           0.0000    0.0000    0.0000 C.3     1  UNL1        0.1505
      4 C           0.0000    0.0000    0.0000 C.3     1  UNL1        0.0287
      5 C           0.0000    0.0000    0.0000 C.2     1  UNL1        0.2576
      6 O           0.0000    0.0000    0.0000 O.2     1  UNL1       -0.2718
      7 N           0.0000    0.0000    0.0000 N.am    1  UNL1       -0.1967
      8 C           0.0000    0.0000    0.0000 C.3     1  UNL1        0.1712
      9 C           0.0000    0.0000    0.0000 C.2     1  UNL1        0.2458
     10 O           0.0000    0.0000    0.0000 O.2     1  UNL1       -0.2730
     11 N           0.0000    0.0000    0.0000 N.am    1  UNL1       -0.2716
     12 C           0.0000    0.0000    0.0000 C.3     1  UNL1        0.0939
     13 C           0.0000    0.0000    0.0000 C.3     1  UNL1        0.0237
     14 C           0.0000    0.0000    0.0000 C.3     1  UNL1        0.0310
     15 C           0.0000    0.0000    0.0000 C.3     1  UNL1        0.1536
     16 C           0.0000    0.0000    0.0000 C.2     1  UNL1        0.2597
     17 O           0.0000    0.0000    0.0000 O.2     1  UNL1       -0.2715
     18 N           0.0000    0.0000    0.0000 N.am    1  UNL1       -0.2013
     19 C           0.0000    0.0000    0.0000 C.3     1  UNL1        0.1172
     20 C           0.0000    0.0000    0.0000 C.3     1  UNL1        0.0265
     21 C           0.0000    0.0000    0.0000 C.3     1  UNL1        0.0068
     22 C           0.0000    0.0000    0.0000 C.3     1  UNL1        0.0262
     23 C           0.0000    0.0000    0.0000 C.ar    1  UNL1       -0.0245
     24 C           0.0000    0.0000    0.0000 C.ar    1  UNL1       -0.0045
     25 C           0.0000    0.0000    0.0000 C.ar    1  UNL1       -0.0003
     26 C           0.0000    0.0000    0.0000 C.ar    1  UNL1       -0.0003
     27 C           0.0000    0.0000    0.0000 C.ar    1  UNL1       -0.0029
     28 C           0.0000    0.0000    0.0000 C.ar    1  UNL1       -0.0065
     29 C           0.0000    0.0000    0.0000 C.3     1  UNL1        0.0289
     30 C           0.0000    0.0000    0.0000 C.3     1  UNL1        0.0022
     31 C           0.0000    0.0000    0.0000 C.3     1  UNL1        0.0001
     32 C           0.0000    0.0000    0.0000 C.3     1  UNL1        0.0000
     33 C           0.0000    0.0000    0.0000 C.3     1  UNL1        0.0001
     34 C           0.0000    0.0000    0.0000 C.3     1  UNL1        0.0022
@<TRIPOS>BOND
     1     1     2    1
     2     2     3    1
     3     3     4    1
     4     3     5    1
     5     5     6    2
     6     5     7   am
     7     7     8    1
     8     8     9    1
     9     9    10    2
    10     9    11   am
    11    11    12    1
    12    12    13    1
    13    13    14    1
    14    14    15    1
    15    11    15    1
    16    15    16    1
    17    16    17    2
    18    16    18   am
    19    18    19    1
    20    19    20    1
    21    20    21    1
    22    21    22    1
    23    22    23    1
    24    23    24   ar
    25    24    25   ar
    26    25    26   ar
    27    26    27   ar
    28    27    28   ar
    29    23    28   ar
    30    19    28    1
    31     8    29    1
    32    29    30    1
    33    30    31    1
    34    31    32    1
    35    32    33    1
    36    33    34    1
    37    29    34    1
