@<TRIPOS>MOLECULE
*****
 37 40 0 0 0
SMALL
GASTEIGER

@<TRIPOS>ATOM
      1 C           0.0000    0.0000    0.0000 C.3     1  UNL1        0.1080
      2 N           0.0000    0.0000    0.0000 N.3     1  UNL1       -0.2087
      3 C           0.0000    0.0000    0.0000 C.3     1  UNL1        0.1505
      4 C           0.0000    0.0000    0.0000 C.3     1  UNL1        0.0287
      5 C           0.0000    0.0000    0.0000 C.2     1  UNL1        0.2576
      6 O           0.0000    0.0000    0.0000 O.2     1  UNL1       -0.2718
      7 N           0.0000    0.0000    0.0000 N.am    1  UNL1       -0.1967
      8 C           0.0000    0.0000    0.0000 C.3     1  UNL1        0.1711
      9 C           0.0000    0.0000    0.0000 C.2     1  UNL1        0.2461
     10 O           0.0000    0.0000    0.0000 O.2     1  UNL1       -0.2730
     11 N           0.0000    0.0000    0.0000 N.am    1  UNL1       -0.2671
     12 C           0.0000    0.0000    0.0000 C.3     1  UNL1        0.1203
     13 C           0.0000    0.0000    0.0000 C.ar    1  UNL1       -0.0062
     14 C           0.0000    0.0000    0.0000 C.ar    1  UNL1       -0.0029
     15 C           0.0000    0.0000    0.0000 C.ar    1  UNL1       -0.0003
     16 C           0.0000    0.0000    0.0000 C.ar    1  UNL1       -0.0003
     17 C           0.0000    0.0000    0.0000 C.ar    1  UNL1       -0.0045
     18 C           0.0000    0.0000    0.0000 C.ar    1  UNL1       -0.0224
     19 C           0.0000    0.0000    0.0000 C.3     1  UNL1        0.0553
     20 C           0.0000    0.0000    0.0000 C.3     1  UNL1        0.1581
     21 C           0.0000    0.0000    0.0000 C.2     1  UNL1        0.2601
     22 O           0.0000    0.0000    0.0000 O.2     1  UNL1       -0.2715
     23 N           0.0000    0.0000    0.0000 N.am    1  UNL1       -0.2013
     24 C           0.0000    0.0000    0.0000 C.3     1  UNL1        0.1172
     25 C           0.0000    0.0000    0.0000 C.3     1  UNL1        0.0265
     26 C           0.0000    0.0000    0.0000 C.3     1  UNL1        0.0068
     27 C           0.0000    0.0000    0.0000 C.3     1  UNL1        0.0262
     28 C           0.0000    0.0000    0.0000 C.ar    1  UNL1       -0.0245
     29 C           0.0000    0.0000    0.0000 C.ar    1  UNL1       -0.0045
     30 C           0.0000    0.0000    0.0000 C.ar    1  UNL1       -0.0003
     31 C           0.0000    0.0000    0.0000 C.ar    1  UNL1       -0.0003
     32 C           0.0000    0.0000    0.0000 C.ar    1  UNL1       -0.0029
     33 C           0.0000    0.0000    0.0000 C.ar    1  UNL1       -0.0065
     34 C           0.0000    0.0000    0.0000 C.3     1  UNL1        0.0269
     35 C           0.0000    0.0000    0.0000 C.3     1  UNL1        0.0022
     36 C           0.0000    0.0000    0.0000 C.3     1  UNL1        0.0022
     37 C           0.0000    0.0000    0.0000 C.3     1  UNL1        0.0022
@<TRIPOS>BOND
     1     1     2    1
     2     2     3    1
     3     3     4    1
     4     3     5    1
     5     5     6    2
     6     5     7   am
     7     7     8    1
     8     8     9    1
     9     9    10    2
    10     9    11   am
    11    11    12    1
    12    12    13    1
    13    13    14   ar
    14    14    15   ar
    15    15    16   ar
    16    16    17   ar
    17    17    18   ar
    18    13    18   ar
    19    18    19    1
    20    19    20    1
    21    11    20    1
    22    20    21    1
    23    21    22    2
    24    21    23   am
    25    23    24    1
    26    24    25    1
    27    25    26    1
    28    26    27    1
    29    27    28    1
    30    28    29   ar
    31    29    30   ar
    32    30    31   ar
    33    31    32   ar
    34    32    33   ar
    35    28    33   ar
    36    24    33    1
    37     8    34    1
    38    34    35    1
    39    34    36    1
    40    34    37    1
