@<TRIPOS>MOLECULE
*****
 39 43 0 0 0
SMALL
GASTEIGER

@<TRIPOS>ATOM
      1 C           0.0000    0.0000    0.0000 C.3     1  UNL1        0.0203
      2 C           0.0000    0.0000    0.0000 C.3     1  UNL1        0.0888
      3 C           0.0000    0.0000    0.0000 C.3     1  UNL1        0.0900
      4 N           0.0000    0.0000    0.0000 N.3     1  UNL1       -0.2625
      5 C           0.0000    0.0000    0.0000 C.3     1  UNL1        0.1591
      6 C           0.0000    0.0000    0.0000 C.2     1  UNL1        0.2457
      7 O           0.0000    0.0000    0.0000 O.2     1  UNL1       -0.2730
      8 N           0.0000    0.0000    0.0000 N.am    1  UNL1       -0.2561
      9 C           0.0000    0.0000    0.0000 C.3     1  UNL1        0.1037
     10 C           0.0000    0.0000    0.0000 C.3     1  UNL1        0.0535
     11 C           0.0000    0.0000    0.0000 C.3     1  UNL1        0.0076
     12 C           0.0000    0.0000    0.0000 C.3     1  UNL1        0.0076
     13 C           0.0000    0.0000    0.0000 C.ar    1  UNL1        0.0544
     14 C           0.0000    0.0000    0.0000 C.ar    1  UNL1        0.0655
     15 C           0.0000    0.0000    0.0000 C.ar    1  UNL1        0.0168
     16 C           0.0000    0.0000    0.0000 C.ar    1  UNL1        0.0396
     17 C           0.0000    0.0000    0.0000 C.3     1  UNL1        0.0575
     18 C           0.0000    0.0000    0.0000 C.ar    1  UNL1       -0.0175
     19 C           0.0000    0.0000    0.0000 C.ar    1  UNL1       -0.0016
     20 C           0.0000    0.0000    0.0000 C.ar    1  UNL1        0.0293
     21 C           0.0000    0.0000    0.0000 C.ar    1  UNL1        0.1401
     22 F           0.0000    0.0000    0.0000 F       1  UNL1       -0.2042
     23 C           0.0000    0.0000    0.0000 C.ar    1  UNL1        0.0293
     24 C           0.0000    0.0000    0.0000 C.ar    1  UNL1       -0.0016
     25 C           0.0000    0.0000    0.0000 C.ar    1  UNL1        0.2570
     26 O           0.0000    0.0000    0.0000 O.2     1  UNL1       -0.2673
     27 N           0.0000    0.0000    0.0000 N.ar    1  UNL1       -0.2962
     28 C           0.0000    0.0000    0.0000 C.3     1  UNL1        0.1332
     29 C           0.0000    0.0000    0.0000 C.3     1  UNL1        0.0915
     30 C           0.0000    0.0000    0.0000 C.3     1  UNL1        0.0897
     31 N           0.0000    0.0000    0.0000 N.3     1  UNL1       -0.2702
     32 C           0.0000    0.0000    0.0000 C.3     1  UNL1        0.0912
     33 C           0.0000    0.0000    0.0000 C.3     1  UNL1        0.1060
     34 N           0.0000    0.0000    0.0000 N.3     1  UNL1       -0.2152
     35 C           0.0000    0.0000    0.0000 C.3     1  UNL1        0.1046
     36 C           0.0000    0.0000    0.0000 C.3     1  UNL1        0.0750
     37 C           0.0000    0.0000    0.0000 C.3     1  UNL1        0.0189
     38 C           0.0000    0.0000    0.0000 C.3     1  UNL1        0.1060
     39 N           0.0000    0.0000    0.0000 N.3     1  UNL1       -0.2166
@<TRIPOS>BOND
     1     1     2    1
     2     2     3    1
     3     3     4    1
     4     4     5    1
     5     5     6    1
     6     6     7    2
     7     6     8   am
     8     8     9    1
     9     9    10    1
    10    10    11    1
    11    10    12    1
    12    10    13    1
    13    13    14   ar
    14     8    14    1
    15    14    15   ar
    16    15    16   ar
    17    16    17    1
    18    17    18    1
    19    18    19   ar
    20    19    20   ar
    21    20    21   ar
    22    21    22    1
    23    21    23   ar
    24    23    24   ar
    25    18    24   ar
    26    16    25   ar
    27    25    26    2
    28    25    27   ar
    29    13    27   ar
    30    27    28    1
    31     4    29    1
    32    29    30    1
    33    30    31    1
    34    31    32    1
    35    32    33    1
    36    33    34    1
    37    34    35    1
    38    35    36    1
    39    31    36    1
    40    36    37    1
    41    29    38    1
    42    38    39    1
    43     2    39    1
