@<TRIPOS>MOLECULE
*****
 14 15 0 0 0
SMALL
GASTEIGER

@<TRIPOS>ATOM
      1 O           0.0000    0.0000    0.0000 O.2     1  UNL1       -0.2729
      2 C           0.0000    0.0000    0.0000 C.2     1  UNL1        0.2479
      3 C           0.0000    0.0000    0.0000 C.3     1  UNL1        0.0881
      4 C           0.0000    0.0000    0.0000 C.3     1  UNL1        0.0232
      5 C           0.0000    0.0000    0.0000 C.3     1  UNL1        0.1013
      6 C           0.0000    0.0000    0.0000 C.ar    1  UNL1       -0.0138
      7 C           0.0000    0.0000    0.0000 C.ar    1  UNL1       -0.0038
      8 C           0.0000    0.0000    0.0000 C.ar    1  UNL1       -0.0003
      9 C           0.0000    0.0000    0.0000 C.ar    1  UNL1       -0.0000
     10 C           0.0000    0.0000    0.0000 C.ar    1  UNL1       -0.0003
     11 C           0.0000    0.0000    0.0000 C.ar    1  UNL1       -0.0038
     12 C           0.0000    0.0000    0.0000 C.2     1  UNL1        0.2515
     13 O           0.0000    0.0000    0.0000 O.2     1  UNL1       -0.2726
     14 N           0.0000    0.0000    0.0000 N.am    1  UNL1       -0.1445
@<TRIPOS>BOND
     1     1     2    2
     2     2     3    1
     3     3     4    1
     4     4     5    1
     5     5     6    1
     6     6     7   ar
     7     7     8   ar
     8     8     9   ar
     9     9    10   ar
    10    10    11   ar
    11     6    11   ar
    12     5    12    1
    13    12    13    2
    14    12    14   am
    15     2    14   am
