@<TRIPOS>MOLECULE
*****
 38 40 0 0 0
SMALL
GASTEIGER

@<TRIPOS>ATOM
      1 C           0.0000    0.0000    0.0000 C.3     1  UNL1        0.0322
      2 C           0.0000    0.0000    0.0000 C.2     1  UNL1       -0.0061
      3 C           0.0000    0.0000    0.0000 C.2     1  UNL1        0.1030
      4 N           0.0000    0.0000    0.0000 N.am    1  UNL1       -0.1753
      5 C           0.0000    0.0000    0.0000 C.2     1  UNL1        0.2618
      6 O           0.0000    0.0000    0.0000 O.2     1  UNL1       -0.2715
      7 C           0.0000    0.0000    0.0000 C.3     1  UNL1        0.1561
      8 N           0.0000    0.0000    0.0000 N.3     1  UNL1       -0.2099
      9 C           0.0000    0.0000    0.0000 C.3     1  UNL1        0.0905
     10 C           0.0000    0.0000    0.0000 C.3     1  UNL1        0.0188
     11 C           0.0000    0.0000    0.0000 C.3     1  UNL1        0.0014
     12 C           0.0000    0.0000    0.0000 C.3     1  UNL1        0.0000
     13 C           0.0000    0.0000    0.0000 C.3     1  UNL1        0.0000
     14 C           0.0000    0.0000    0.0000 C.3     1  UNL1        0.0000
     15 C           0.0000    0.0000    0.0000 C.3     1  UNL1        0.1202
     16 C           0.0000    0.0000    0.0000 C.1     1  UNL1        0.0771
     17 N           0.0000    0.0000    0.0000 N.1     1  UNL1       -0.1955
     18 C           0.0000    0.0000    0.0000 C.ar    1  UNL1        0.0196
     19 C           0.0000    0.0000    0.0000 C.ar    1  UNL1       -0.0002
     20 C           0.0000    0.0000    0.0000 C.ar    1  UNL1        0.0112
     21 C           0.0000    0.0000    0.0000 C.ar    1  UNL1        0.0599
     22 CL          0.0000    0.0000    0.0000 Cl      1  UNL1       -0.0822
     23 C           0.0000    0.0000    0.0000 C.ar    1  UNL1        0.0407
     24 C           0.0000    0.0000    0.0000 C.ar    1  UNL1        0.1380
     25 F           0.0000    0.0000    0.0000 F       1  UNL1       -0.2044
     26 C           0.0000    0.0000    0.0000 C.3     1  UNL1        0.0678
     27 C           0.0000    0.0000    0.0000 C.ar    1  UNL1        0.0090
     28 C           0.0000    0.0000    0.0000 C.ar    1  UNL1       -0.0019
     29 C           0.0000    0.0000    0.0000 C.ar    1  UNL1        0.0007
     30 C           0.0000    0.0000    0.0000 C.ar    1  UNL1        0.0136
     31 C           0.0000    0.0000    0.0000 C.ar    1  UNL1        0.0847
     32 CL          0.0000    0.0000    0.0000 Cl      1  UNL1       -0.0799
     33 C           0.0000    0.0000    0.0000 C.ar    1  UNL1        0.1467
     34 F           0.0000    0.0000    0.0000 F       1  UNL1       -0.2036
     35 C           0.0000    0.0000    0.0000 C.2     1  UNL1        0.1537
     36 C           0.0000    0.0000    0.0000 C.2     1  UNL1        0.0414
     37 O           0.0000    0.0000    0.0000 O.2     1  UNL1       -0.4701
     38 C           0.0000    0.0000    0.0000 C.3     1  UNL1        0.2525
@<TRIPOS>BOND
     1     1     2    1
     2     2     3    2
     3     3     4    1
     4     4     5   am
     5     5     6    2
     6     5     7    1
     7     7     8    1
     8     8     9    1
     9     9    10    1
    10    10    11    1
    11    11    12    1
    12    11    13    1
    13    11    14    1
    14     9    15    1
    15    15    16    1
    16    16    17    3
    17    15    18    1
    18    18    19   ar
    19    19    20   ar
    20    20    21   ar
    21    21    22    1
    22    21    23   ar
    23    23    24   ar
    24    18    24   ar
    25    24    25    1
    26    15    26    1
    27     7    26    1
    28    26    27    1
    29    27    28   ar
    30    28    29   ar
    31    29    30   ar
    32    30    31   ar
    33    31    32    1
    34    31    33   ar
    35    27    33   ar
    36    33    34    1
    37     3    35    1
    38    35    36    2
    39    35    37    1
    40    37    38    1
