@<TRIPOS>MOLECULE
*****
 20 22 0 0 0
SMALL
GASTEIGER

@<TRIPOS>ATOM
      1 O           0.0000    0.0000    0.0000 O.2     1  UNL1       -0.2729
      2 C           0.0000    0.0000    0.0000 C.2     1  UNL1        0.2480
      3 C           0.0000    0.0000    0.0000 C.3     1  UNL1        0.0895
      4 C           0.0000    0.0000    0.0000 C.3     1  UNL1        0.0394
      5 C           0.0000    0.0000    0.0000 C.3     1  UNL1        0.1616
      6 N           0.0000    0.0000    0.0000 N.am    1  UNL1       -0.2158
      7 C           0.0000    0.0000    0.0000 C.2     1  UNL1        0.2554
      8 O           0.0000    0.0000    0.0000 O.2     1  UNL1       -0.2695
      9 C           0.0000    0.0000    0.0000 C.ar    1  UNL1        0.0585
     10 C           0.0000    0.0000    0.0000 C.ar    1  UNL1        0.0070
     11 C           0.0000    0.0000    0.0000 C.ar    1  UNL1        0.0298
     12 C           0.0000    0.0000    0.0000 C.ar    1  UNL1        0.1403
     13 F           0.0000    0.0000    0.0000 F       1  UNL1       -0.2042
     14 C           0.0000    0.0000    0.0000 C.ar    1  UNL1        0.0343
     15 C           0.0000    0.0000    0.0000 C.ar    1  UNL1        0.0606
     16 C           0.0000    0.0000    0.0000 C.2     1  UNL1        0.2555
     17 O           0.0000    0.0000    0.0000 O.2     1  UNL1       -0.2695
     18 C           0.0000    0.0000    0.0000 C.2     1  UNL1        0.2664
     19 O           0.0000    0.0000    0.0000 O.2     1  UNL1       -0.2711
     20 N           0.0000    0.0000    0.0000 N.am    1  UNL1       -0.1434
@<TRIPOS>BOND
     1     1     2    2
     2     2     3    1
     3     3     4    1
     4     4     5    1
     5     5     6    1
     6     6     7   am
     7     7     8    2
     8     7     9    1
     9     9    10   ar
    10    10    11   ar
    11    11    12   ar
    12    12    13    1
    13    12    14   ar
    14    14    15   ar
    15     9    15   ar
    16    15    16    1
    17     6    16   am
    18    16    17    2
    19     5    18    1
    20    18    19    2
    21    18    20   am
    22     2    20   am
