@<TRIPOS>MOLECULE
*****
 21 24 0 0 0
SMALL
GASTEIGER

@<TRIPOS>ATOM
      1 O           0.0000    0.0000    0.0000 O.2     1  UNL1       -0.2729
      2 C           0.0000    0.0000    0.0000 C.2     1  UNL1        0.2480
      3 C           0.0000    0.0000    0.0000 C.3     1  UNL1        0.0895
      4 C           0.0000    0.0000    0.0000 C.3     1  UNL1        0.0389
      5 C           0.0000    0.0000    0.0000 C.3     1  UNL1        0.1549
      6 N           0.0000    0.0000    0.0000 N.am    1  UNL1       -0.2652
      7 C           0.0000    0.0000    0.0000 C.3     1  UNL1        0.1210
      8 C           0.0000    0.0000    0.0000 C.ar    1  UNL1        0.0018
      9 C           0.0000    0.0000    0.0000 C.ar    1  UNL1       -0.0056
     10 C           0.0000    0.0000    0.0000 C.ar    1  UNL1       -0.0077
     11 C           0.0000    0.0000    0.0000 C.ar    1  UNL1       -0.0073
     12 C           0.0000    0.0000    0.0000 C.ar    1  UNL1        0.0011
     13 C           0.0000    0.0000    0.0000 C.ar    1  UNL1        0.0510
     14 C           0.0000    0.0000    0.0000 C.2     1  UNL1        0.2493
     15 O           0.0000    0.0000    0.0000 O.2     1  UNL1       -0.2699
     16 C           0.0000    0.0000    0.0000 C.3     1  UNL1        0.1151
     17 N           0.0000    0.0000    0.0000 N.3     1  UNL1       -0.2085
     18 C           0.0000    0.0000    0.0000 C.3     1  UNL1        0.1151
     19 C           0.0000    0.0000    0.0000 C.2     1  UNL1        0.2660
     20 O           0.0000    0.0000    0.0000 O.2     1  UNL1       -0.2711
     21 N           0.0000    0.0000    0.0000 N.am    1  UNL1       -0.1434
@<TRIPOS>BOND
     1     1     2    2
     2     2     3    1
     3     3     4    1
     4     4     5    1
     5     5     6    1
     6     6     7    1
     7     7     8    1
     8     8     9   ar
     9     9    10   ar
    10    10    11   ar
    11    11    12   ar
    12    12    13   ar
    13     8    13   ar
    14    13    14    1
    15     6    14   am
    16    14    15    2
    17    11    16    1
    18    16    17    1
    19    17    18    1
    20    10    18    1
    21     5    19    1
    22    19    20    2
    23    19    21   am
    24     2    21   am
