@<TRIPOS>MOLECULE
*****
 15 16 0 0 0
SMALL
GASTEIGER

@<TRIPOS>ATOM
      1 O           0.0000    0.0000    0.0000 O.2     1  UNL1       -0.2729
      2 C           0.0000    0.0000    0.0000 C.2     1  UNL1        0.2480
      3 C           0.0000    0.0000    0.0000 C.3     1  UNL1        0.0895
      4 C           0.0000    0.0000    0.0000 C.3     1  UNL1        0.0406
      5 C           0.0000    0.0000    0.0000 C.3     1  UNL1        0.1708
      6 N           0.0000    0.0000    0.0000 N.pl3   1  UNL1       -0.2300
      7 C           0.0000    0.0000    0.0000 C.ar    1  UNL1        0.0658
      8 C           0.0000    0.0000    0.0000 C.ar    1  UNL1        0.0161
      9 C           0.0000    0.0000    0.0000 C.ar    1  UNL1        0.0013
     10 C           0.0000    0.0000    0.0000 C.ar    1  UNL1        0.0001
     11 C           0.0000    0.0000    0.0000 C.ar    1  UNL1        0.0013
     12 C           0.0000    0.0000    0.0000 C.ar    1  UNL1        0.0161
     13 C           0.0000    0.0000    0.0000 C.2     1  UNL1        0.2676
     14 O           0.0000    0.0000    0.0000 O.2     1  UNL1       -0.2710
     15 N           0.0000    0.0000    0.0000 N.am    1  UNL1       -0.1433
@<TRIPOS>BOND
     1     1     2    2
     2     2     3    1
     3     3     4    1
     4     4     5    1
     5     5     6    1
     6     6     7    1
     7     7     8   ar
     8     8     9   ar
     9     9    10   ar
    10    10    11   ar
    11    11    12   ar
    12     7    12   ar
    13     5    13    1
    14    13    14    2
    15    13    15   am
    16     2    15   am
