@<TRIPOS>MOLECULE
*****
 12 12 0 0 0
SMALL
GASTEIGER

@<TRIPOS>ATOM
      1 C           0.0000    0.0000    0.0000 C.3     1  UNL1        0.1157
      2 N           0.0000    0.0000    0.0000 N.am    1  UNL1       -0.2639
      3 C           0.0000    0.0000    0.0000 C.2     1  UNL1        0.3033
      4 O           0.0000    0.0000    0.0000 O.2     1  UNL1       -0.2649
      5 C           0.0000    0.0000    0.0000 C.3     1  UNL1        0.1548
      6 C           0.0000    0.0000    0.0000 C.3     1  UNL1        0.0389
      7 C           0.0000    0.0000    0.0000 C.3     1  UNL1        0.0895
      8 C           0.0000    0.0000    0.0000 C.2     1  UNL1        0.2480
      9 O           0.0000    0.0000    0.0000 O.2     1  UNL1       -0.2729
     10 N           0.0000    0.0000    0.0000 N.am    1  UNL1       -0.1434
     11 C           0.0000    0.0000    0.0000 C.2     1  UNL1        0.2660
     12 O           0.0000    0.0000    0.0000 O.2     1  UNL1       -0.2711
@<TRIPOS>BOND
     1     1     2    1
     2     2     3   am
     3     3     4    2
     4     2     5    1
     5     5     6    1
     6     6     7    1
     7     7     8    1
     8     8     9    2
     9     8    10   am
    10    10    11   am
    11     5    11    1
    12    11    12    2
