@<TRIPOS>MOLECULE
*****
 36 39 0 0 0
SMALL
GASTEIGER

@<TRIPOS>ATOM
      1 C           0.0000    0.0000    0.0000 C.3     1  UNL1        0.0526
      2 C           0.0000    0.0000    0.0000 C.ar    1  UNL1        0.0660
      3 C           0.0000    0.0000    0.0000 C.ar    1  UNL1        0.0445
      4 C           0.0000    0.0000    0.0000 C.ar    1  UNL1        0.0072
      5 C           0.0000    0.0000    0.0000 C.ar    1  UNL1        0.0003
      6 C           0.0000    0.0000    0.0000 C.ar    1  UNL1       -0.0025
      7 C           0.0000    0.0000    0.0000 C.ar    1  UNL1       -0.0006
      8 C           0.0000    0.0000    0.0000 C.3     1  UNL1        0.1415
      9 N           0.0000    0.0000    0.0000 N.am    1  UNL1       -0.1992
     10 C           0.0000    0.0000    0.0000 C.2     1  UNL1        0.2598
     11 O           0.0000    0.0000    0.0000 O.2     1  UNL1       -0.2715
     12 C           0.0000    0.0000    0.0000 C.3     1  UNL1        0.1562
     13 C           0.0000    0.0000    0.0000 C.3     1  UNL1        0.0639
     14 C           0.0000    0.0000    0.0000 C.3     1  UNL1        0.1739
     15 O           0.0000    0.0000    0.0000 O.3     1  UNL1       -0.2212
     16 C           0.0000    0.0000    0.0000 C.3     1  UNL1        0.1267
     17 N           0.0000    0.0000    0.0000 N.am    1  UNL1       -0.2689
     18 C           0.0000    0.0000    0.0000 C.2     1  UNL1        0.2459
     19 O           0.0000    0.0000    0.0000 O.2     1  UNL1       -0.2730
     20 C           0.0000    0.0000    0.0000 C.3     1  UNL1        0.1712
     21 N           0.0000    0.0000    0.0000 N.am    1  UNL1       -0.1956
     22 C           0.0000    0.0000    0.0000 C.2     1  UNL1        0.2713
     23 O           0.0000    0.0000    0.0000 O.2     1  UNL1       -0.2705
     24 C           0.0000    0.0000    0.0000 C.3     1  UNL1        0.2032
     25 F           0.0000    0.0000    0.0000 F       1  UNL1       -0.2306
     26 C           0.0000    0.0000    0.0000 C.3     1  UNL1        0.0449
     27 C           0.0000    0.0000    0.0000 C.3     1  UNL1        0.0449
     28 C           0.0000    0.0000    0.0000 C.3     1  UNL1        0.0269
     29 C           0.0000    0.0000    0.0000 C.3     1  UNL1        0.0022
     30 C           0.0000    0.0000    0.0000 C.3     1  UNL1        0.0022
     31 C           0.0000    0.0000    0.0000 C.3     1  UNL1        0.0022
     32 C           0.0000    0.0000    0.0000 C.ar    1  UNL1       -0.0025
     33 C           0.0000    0.0000    0.0000 C.ar    1  UNL1        0.0003
     34 S           0.0000    0.0000    0.0000 S.2     1  UNL1       -0.0649
     35 C           0.0000    0.0000    0.0000 C.ar    1  UNL1        0.1341
     36 N           0.0000    0.0000    0.0000 N.ar    1  UNL1       -0.2406
@<TRIPOS>BOND
     1     1     2    1
     2     2     3   ar
     3     3     4    1
     4     4     5   ar
     5     5     6   ar
     6     6     7   ar
     7     7     8    1
     8     8     9    1
     9     9    10   am
    10    10    11    2
    11    10    12    1
    12    12    13    1
    13    13    14    1
    14    14    15    1
    15    14    16    1
    16    16    17    1
    17    12    17    1
    18    17    18   am
    19    18    19    2
    20    18    20    1
    21    20    21    1
    22    21    22   am
    23    22    23    2
    24    22    24    1
    25    24    25    1
    26    24    26    1
    27    26    27    1
    28    24    27    1
    29    20    28    1
    30    28    29    1
    31    28    30    1
    32    28    31    1
    33     7    32   ar
    34    32    33   ar
    35     4    33   ar
    36     3    34   ar
    37    34    35   ar
    38    35    36   ar
    39     2    36   ar
