@<TRIPOS>MOLECULE
*****
 20 22 0 0 0
SMALL
GASTEIGER

@<TRIPOS>ATOM
      1 N           0.0000    0.0000    0.0000 N.pl3   1  UNL1       -0.1278
      2 C           0.0000    0.0000    0.0000 C.ar    1  UNL1        0.0952
      3 C           0.0000    0.0000    0.0000 C.ar    1  UNL1        0.0183
      4 C           0.0000    0.0000    0.0000 C.ar    1  UNL1        0.0030
      5 C           0.0000    0.0000    0.0000 C.ar    1  UNL1        0.0212
      6 C           0.0000    0.0000    0.0000 C.ar    1  UNL1        0.1104
      7 C           0.0000    0.0000    0.0000 C.ar    1  UNL1        0.0937
      8 C           0.0000    0.0000    0.0000 C.ar    1  UNL1        0.2808
      9 O           0.0000    0.0000    0.0000 O.2     1  UNL1       -0.2654
     10 N           0.0000    0.0000    0.0000 N.ar    1  UNL1       -0.1915
     11 C           0.0000    0.0000    0.0000 C.3     1  UNL1        0.1882
     12 C           0.0000    0.0000    0.0000 C.3     1  UNL1        0.0436
     13 C           0.0000    0.0000    0.0000 C.3     1  UNL1        0.0898
     14 C           0.0000    0.0000    0.0000 C.2     1  UNL1        0.2480
     15 O           0.0000    0.0000    0.0000 O.2     1  UNL1       -0.2729
     16 N           0.0000    0.0000    0.0000 N.am    1  UNL1       -0.1431
     17 C           0.0000    0.0000    0.0000 C.2     1  UNL1        0.2704
     18 O           0.0000    0.0000    0.0000 O.2     1  UNL1       -0.2708
     19 N           0.0000    0.0000    0.0000 N.ar    1  UNL1       -0.0610
     20 N           0.0000    0.0000    0.0000 N.ar    1  UNL1       -0.1300
@<TRIPOS>BOND
     1     1     2    1
     2     2     3   ar
     3     3     4   ar
     4     4     5   ar
     5     5     6   ar
     6     6     7   ar
     7     2     7   ar
     8     7     8   ar
     9     8     9    2
    10     8    10   ar
    11    10    11    1
    12    11    12    1
    13    12    13    1
    14    13    14    1
    15    14    15    2
    16    14    16   am
    17    16    17   am
    18    11    17    1
    19    17    18    2
    20    10    19   ar
    21    19    20   ar
    22     6    20   ar
