@<TRIPOS>MOLECULE
*****
 39 42 0 0 0
SMALL
GASTEIGER

@<TRIPOS>ATOM
      1 C           0.0000    0.0000    0.0000 C.3     1  UNL1        0.2525
      2 O           0.0000    0.0000    0.0000 O.3     1  UNL1       -0.4701
      3 C           0.0000    0.0000    0.0000 C.ar    1  UNL1        0.1539
      4 C           0.0000    0.0000    0.0000 C.ar    1  UNL1        0.0383
      5 C           0.0000    0.0000    0.0000 C.ar    1  UNL1        0.0032
      6 C           0.0000    0.0000    0.0000 C.ar    1  UNL1        0.0015
      7 C           0.0000    0.0000    0.0000 C.ar    1  UNL1        0.0197
      8 C           0.0000    0.0000    0.0000 C.ar    1  UNL1        0.1072
      9 N           0.0000    0.0000    0.0000 N.am    1  UNL1       -0.1750
     10 C           0.0000    0.0000    0.0000 C.2     1  UNL1        0.2618
     11 O           0.0000    0.0000    0.0000 O.2     1  UNL1       -0.2715
     12 C           0.0000    0.0000    0.0000 C.3     1  UNL1        0.1561
     13 N           0.0000    0.0000    0.0000 N.3     1  UNL1       -0.2099
     14 C           0.0000    0.0000    0.0000 C.3     1  UNL1        0.0905
     15 C           0.0000    0.0000    0.0000 C.3     1  UNL1        0.0188
     16 C           0.0000    0.0000    0.0000 C.3     1  UNL1        0.0014
     17 C           0.0000    0.0000    0.0000 C.3     1  UNL1        0.0000
     18 C           0.0000    0.0000    0.0000 C.3     1  UNL1        0.0000
     19 C           0.0000    0.0000    0.0000 C.3     1  UNL1        0.0000
     20 C           0.0000    0.0000    0.0000 C.3     1  UNL1        0.1202
     21 C           0.0000    0.0000    0.0000 C.1     1  UNL1        0.0771
     22 N           0.0000    0.0000    0.0000 N.1     1  UNL1       -0.1955
     23 C           0.0000    0.0000    0.0000 C.ar    1  UNL1        0.0196
     24 C           0.0000    0.0000    0.0000 C.ar    1  UNL1       -0.0002
     25 C           0.0000    0.0000    0.0000 C.ar    1  UNL1        0.0112
     26 C           0.0000    0.0000    0.0000 C.ar    1  UNL1        0.0599
     27 CL          0.0000    0.0000    0.0000 Cl      1  UNL1       -0.0822
     28 C           0.0000    0.0000    0.0000 C.ar    1  UNL1        0.0407
     29 C           0.0000    0.0000    0.0000 C.ar    1  UNL1        0.1380
     30 F           0.0000    0.0000    0.0000 F       1  UNL1       -0.2044
     31 C           0.0000    0.0000    0.0000 C.3     1  UNL1        0.0678
     32 C           0.0000    0.0000    0.0000 C.ar    1  UNL1        0.0090
     33 C           0.0000    0.0000    0.0000 C.ar    1  UNL1       -0.0019
     34 C           0.0000    0.0000    0.0000 C.ar    1  UNL1        0.0007
     35 C           0.0000    0.0000    0.0000 C.ar    1  UNL1        0.0136
     36 C           0.0000    0.0000    0.0000 C.ar    1  UNL1        0.0847
     37 CL          0.0000    0.0000    0.0000 Cl      1  UNL1       -0.0799
     38 C           0.0000    0.0000    0.0000 C.ar    1  UNL1        0.1467
     39 F           0.0000    0.0000    0.0000 F       1  UNL1       -0.2036
@<TRIPOS>BOND
     1     1     2    1
     2     2     3    1
     3     3     4   ar
     4     4     5   ar
     5     5     6   ar
     6     6     7   ar
     7     7     8   ar
     8     3     8   ar
     9     8     9    1
    10     9    10   am
    11    10    11    2
    12    10    12    1
    13    12    13    1
    14    13    14    1
    15    14    15    1
    16    15    16    1
    17    16    17    1
    18    16    18    1
    19    16    19    1
    20    14    20    1
    21    20    21    1
    22    21    22    3
    23    20    23    1
    24    23    24   ar
    25    24    25   ar
    26    25    26   ar
    27    26    27    1
    28    26    28   ar
    29    28    29   ar
    30    23    29   ar
    31    29    30    1
    32    20    31    1
    33    12    31    1
    34    31    32    1
    35    32    33   ar
    36    33    34   ar
    37    34    35   ar
    38    35    36   ar
    39    36    37    1
    40    36    38   ar
    41    32    38   ar
    42    38    39    1
