@<TRIPOS>MOLECULE
*****
 38 42 0 0 0
SMALL
GASTEIGER

@<TRIPOS>ATOM
      1 C           0.0000    0.0000    0.0000 C.3     1  UNL1        0.0526
      2 C           0.0000    0.0000    0.0000 C.ar    1  UNL1        0.0660
      3 C           0.0000    0.0000    0.0000 C.ar    1  UNL1        0.0445
      4 C           0.0000    0.0000    0.0000 C.ar    1  UNL1        0.0072
      5 C           0.0000    0.0000    0.0000 C.ar    1  UNL1        0.0003
      6 C           0.0000    0.0000    0.0000 C.ar    1  UNL1       -0.0025
      7 C           0.0000    0.0000    0.0000 C.ar    1  UNL1       -0.0006
      8 C           0.0000    0.0000    0.0000 C.3     1  UNL1        0.1415
      9 N           0.0000    0.0000    0.0000 N.am    1  UNL1       -0.1992
     10 C           0.0000    0.0000    0.0000 C.2     1  UNL1        0.2598
     11 O           0.0000    0.0000    0.0000 O.2     1  UNL1       -0.2715
     12 C           0.0000    0.0000    0.0000 C.3     1  UNL1        0.1562
     13 C           0.0000    0.0000    0.0000 C.3     1  UNL1        0.0639
     14 C           0.0000    0.0000    0.0000 C.3     1  UNL1        0.1739
     15 O           0.0000    0.0000    0.0000 O.3     1  UNL1       -0.2212
     16 C           0.0000    0.0000    0.0000 C.3     1  UNL1        0.1267
     17 N           0.0000    0.0000    0.0000 N.am    1  UNL1       -0.2689
     18 C           0.0000    0.0000    0.0000 C.2     1  UNL1        0.2441
     19 O           0.0000    0.0000    0.0000 O.2     1  UNL1       -0.2731
     20 C           0.0000    0.0000    0.0000 C.3     1  UNL1        0.1524
     21 C           0.0000    0.0000    0.0000 C.3     1  UNL1        0.0272
     22 C           0.0000    0.0000    0.0000 C.3     1  UNL1        0.0022
     23 C           0.0000    0.0000    0.0000 C.3     1  UNL1        0.0022
     24 N           0.0000    0.0000    0.0000 N.am    1  UNL1       -0.2653
     25 C           0.0000    0.0000    0.0000 C.3     1  UNL1        0.1210
     26 C           0.0000    0.0000    0.0000 C.ar    1  UNL1        0.0021
     27 C           0.0000    0.0000    0.0000 C.ar    1  UNL1       -0.0025
     28 C           0.0000    0.0000    0.0000 C.ar    1  UNL1       -0.0003
     29 C           0.0000    0.0000    0.0000 C.ar    1  UNL1        0.0001
     30 C           0.0000    0.0000    0.0000 C.ar    1  UNL1        0.0043
     31 C           0.0000    0.0000    0.0000 C.ar    1  UNL1        0.0512
     32 C           0.0000    0.0000    0.0000 C.2     1  UNL1        0.2493
     33 O           0.0000    0.0000    0.0000 O.2     1  UNL1       -0.2699
     34 C           0.0000    0.0000    0.0000 C.ar    1  UNL1       -0.0025
     35 C           0.0000    0.0000    0.0000 C.ar    1  UNL1        0.0003
     36 S           0.0000    0.0000    0.0000 S.2     1  UNL1       -0.0649
     37 C           0.0000    0.0000    0.0000 C.ar    1  UNL1        0.1341
     38 N           0.0000    0.0000    0.0000 N.ar    1  UNL1       -0.2406
@<TRIPOS>BOND
     1     1     2    1
     2     2     3   ar
     3     3     4    1
     4     4     5   ar
     5     5     6   ar
     6     6     7   ar
     7     7     8    1
     8     8     9    1
     9     9    10   am
    10    10    11    2
    11    10    12    1
    12    12    13    1
    13    13    14    1
    14    14    15    1
    15    14    16    1
    16    16    17    1
    17    12    17    1
    18    17    18   am
    19    18    19    2
    20    18    20    1
    21    20    21    1
    22    21    22    1
    23    21    23    1
    24    20    24    1
    25    24    25    1
    26    25    26    1
    27    26    27   ar
    28    27    28   ar
    29    28    29   ar
    30    29    30   ar
    31    30    31   ar
    32    26    31   ar
    33    31    32    1
    34    24    32   am
    35    32    33    2
    36     7    34   ar
    37    34    35   ar
    38     4    35   ar
    39     3    36   ar
    40    36    37   ar
    41    37    38   ar
    42     2    38   ar
