@<TRIPOS>MOLECULE
*****
 18 20 0 0 0
SMALL
GASTEIGER

@<TRIPOS>ATOM
      1 O           0.0000    0.0000    0.0000 O.2     1  UNL1       -0.2729
      2 C           0.0000    0.0000    0.0000 C.2     1  UNL1        0.2480
      3 C           0.0000    0.0000    0.0000 C.3     1  UNL1        0.0895
      4 C           0.0000    0.0000    0.0000 C.3     1  UNL1        0.0389
      5 C           0.0000    0.0000    0.0000 C.3     1  UNL1        0.1549
      6 N           0.0000    0.0000    0.0000 N.am    1  UNL1       -0.2652
      7 C           0.0000    0.0000    0.0000 C.3     1  UNL1        0.1210
      8 C           0.0000    0.0000    0.0000 C.ar    1  UNL1        0.0021
      9 C           0.0000    0.0000    0.0000 C.ar    1  UNL1       -0.0025
     10 C           0.0000    0.0000    0.0000 C.ar    1  UNL1       -0.0003
     11 C           0.0000    0.0000    0.0000 C.ar    1  UNL1        0.0001
     12 C           0.0000    0.0000    0.0000 C.ar    1  UNL1        0.0043
     13 C           0.0000    0.0000    0.0000 C.ar    1  UNL1        0.0512
     14 C           0.0000    0.0000    0.0000 C.2     1  UNL1        0.2493
     15 O           0.0000    0.0000    0.0000 O.2     1  UNL1       -0.2699
     16 C           0.0000    0.0000    0.0000 C.2     1  UNL1        0.2660
     17 O           0.0000    0.0000    0.0000 O.2     1  UNL1       -0.2711
     18 N           0.0000    0.0000    0.0000 N.am    1  UNL1       -0.1434
@<TRIPOS>BOND
     1     1     2    2
     2     2     3    1
     3     3     4    1
     4     4     5    1
     5     5     6    1
     6     6     7    1
     7     7     8    1
     8     8     9   ar
     9     9    10   ar
    10    10    11   ar
    11    11    12   ar
    12    12    13   ar
    13     8    13   ar
    14    13    14    1
    15     6    14   am
    16    14    15    2
    17     5    16    1
    18    16    17    2
    19    16    18   am
    20     2    18   am
