@<TRIPOS>MOLECULE
*****
 32 35 0 0 0
SMALL
GASTEIGER

@<TRIPOS>ATOM
      1 N           0.0000    0.0000    0.0000 N.2     1  UNL1       -0.1464
      2 C           0.0000    0.0000    0.0000 C.2     1  UNL1        0.1221
      3 C           0.0000    0.0000    0.0000 C.ar    1  UNL1        0.0212
      4 C           0.0000    0.0000    0.0000 C.ar    1  UNL1        0.0047
      5 C           0.0000    0.0000    0.0000 C.ar    1  UNL1        0.0369
      6 C           0.0000    0.0000    0.0000 C.ar    1  UNL1        0.1386
      7 O           0.0000    0.0000    0.0000 O.3     1  UNL1       -0.4754
      8 C           0.0000    0.0000    0.0000 C.3     1  UNL1        0.2064
      9 C           0.0000    0.0000    0.0000 C.3     1  UNL1        0.0613
     10 C           0.0000    0.0000    0.0000 C.3     1  UNL1        0.0802
     11 C           0.0000    0.0000    0.0000 C.1     1  UNL1       -0.0863
     12 C           0.0000    0.0000    0.0000 C.1     1  UNL1       -0.0646
     13 C           0.0000    0.0000    0.0000 C.ar    1  UNL1        0.0394
     14 C           0.0000    0.0000    0.0000 C.ar    1  UNL1        0.0080
     15 C           0.0000    0.0000    0.0000 C.ar    1  UNL1        0.0008
     16 C           0.0000    0.0000    0.0000 C.ar    1  UNL1        0.0043
     17 C           0.0000    0.0000    0.0000 C.ar    1  UNL1        0.0518
     18 C           0.0000    0.0000    0.0000 C.ar    1  UNL1        0.0097
     19 C           0.0000    0.0000    0.0000 C.3     1  UNL1        0.1216
     20 N           0.0000    0.0000    0.0000 N.am    1  UNL1       -0.2652
     21 C           0.0000    0.0000    0.0000 C.3     1  UNL1        0.1549
     22 C           0.0000    0.0000    0.0000 C.3     1  UNL1        0.0389
     23 C           0.0000    0.0000    0.0000 C.3     1  UNL1        0.0895
     24 C           0.0000    0.0000    0.0000 C.2     1  UNL1        0.2480
     25 O           0.0000    0.0000    0.0000 O.2     1  UNL1       -0.2729
     26 N           0.0000    0.0000    0.0000 N.am    1  UNL1       -0.1434
     27 C           0.0000    0.0000    0.0000 C.2     1  UNL1        0.2660
     28 O           0.0000    0.0000    0.0000 O.2     1  UNL1       -0.2711
     29 C           0.0000    0.0000    0.0000 C.2     1  UNL1        0.2493
     30 O           0.0000    0.0000    0.0000 O.2     1  UNL1       -0.2699
     31 C           0.0000    0.0000    0.0000 C.ar    1  UNL1        0.0369
     32 C           0.0000    0.0000    0.0000 C.ar    1  UNL1        0.0047
@<TRIPOS>BOND
     1     1     2    2
     2     2     3    1
     3     3     4   ar
     4     4     5   ar
     5     5     6   ar
     6     6     7    1
     7     7     8    1
     8     8     9    1
     9     9    10    1
    10    10    11    1
    11    11    12    3
    12    12    13    1
    13    13    14   ar
    14    14    15   ar
    15    15    16   ar
    16    16    17   ar
    17    17    18   ar
    18    13    18   ar
    19    18    19    1
    20    19    20    1
    21    20    21    1
    22    21    22    1
    23    22    23    1
    24    23    24    1
    25    24    25    2
    26    24    26   am
    27    26    27   am
    28    21    27    1
    29    27    28    2
    30    20    29   am
    31    17    29    1
    32    29    30    2
    33     6    31   ar
    34    31    32   ar
    35     3    32   ar
