@<TRIPOS>MOLECULE
*****
 37 41 0 0 0
SMALL
GASTEIGER

@<TRIPOS>ATOM
      1 C           0.0000    0.0000    0.0000 C.3     1  UNL1        0.0203
      2 C           0.0000    0.0000    0.0000 C.3     1  UNL1        0.0888
      3 C           0.0000    0.0000    0.0000 C.3     1  UNL1        0.0900
      4 N           0.0000    0.0000    0.0000 N.3     1  UNL1       -0.2625
      5 C           0.0000    0.0000    0.0000 C.3     1  UNL1        0.1591
      6 C           0.0000    0.0000    0.0000 C.2     1  UNL1        0.2457
      7 O           0.0000    0.0000    0.0000 O.2     1  UNL1       -0.2730
      8 N           0.0000    0.0000    0.0000 N.am    1  UNL1       -0.2560
      9 C           0.0000    0.0000    0.0000 C.3     1  UNL1        0.1038
     10 C           0.0000    0.0000    0.0000 C.3     1  UNL1        0.0553
     11 C           0.0000    0.0000    0.0000 C.3     1  UNL1        0.0077
     12 C           0.0000    0.0000    0.0000 C.3     1  UNL1        0.0077
     13 C           0.0000    0.0000    0.0000 C.ar    1  UNL1        0.0735
     14 N           0.0000    0.0000    0.0000 N.ar    1  UNL1       -0.2472
     15 C           0.0000    0.0000    0.0000 C.ar    1  UNL1        0.0946
     16 C           0.0000    0.0000    0.0000 C.ar    1  UNL1        0.0026
     17 C           0.0000    0.0000    0.0000 C.3     1  UNL1        0.0542
     18 C           0.0000    0.0000    0.0000 C.ar    1  UNL1       -0.0176
     19 C           0.0000    0.0000    0.0000 C.ar    1  UNL1       -0.0016
     20 C           0.0000    0.0000    0.0000 C.ar    1  UNL1        0.0293
     21 C           0.0000    0.0000    0.0000 C.ar    1  UNL1        0.1401
     22 F           0.0000    0.0000    0.0000 F       1  UNL1       -0.2042
     23 C           0.0000    0.0000    0.0000 C.ar    1  UNL1        0.0293
     24 C           0.0000    0.0000    0.0000 C.ar    1  UNL1       -0.0016
     25 C           0.0000    0.0000    0.0000 C.ar    1  UNL1        0.0137
     26 C           0.0000    0.0000    0.0000 C.ar    1  UNL1        0.0672
     27 C           0.0000    0.0000    0.0000 C.3     1  UNL1        0.0915
     28 C           0.0000    0.0000    0.0000 C.3     1  UNL1        0.0897
     29 N           0.0000    0.0000    0.0000 N.3     1  UNL1       -0.2702
     30 C           0.0000    0.0000    0.0000 C.3     1  UNL1        0.0912
     31 C           0.0000    0.0000    0.0000 C.3     1  UNL1        0.1060
     32 N           0.0000    0.0000    0.0000 N.3     1  UNL1       -0.2152
     33 C           0.0000    0.0000    0.0000 C.3     1  UNL1        0.1046
     34 C           0.0000    0.0000    0.0000 C.3     1  UNL1        0.0750
     35 C           0.0000    0.0000    0.0000 C.3     1  UNL1        0.0189
     36 C           0.0000    0.0000    0.0000 C.3     1  UNL1        0.1060
     37 N           0.0000    0.0000    0.0000 N.3     1  UNL1       -0.2166
@<TRIPOS>BOND
     1     1     2    1
     2     2     3    1
     3     3     4    1
     4     4     5    1
     5     5     6    1
     6     6     7    2
     7     6     8   am
     8     8     9    1
     9     9    10    1
    10    10    11    1
    11    10    12    1
    12    10    13    1
    13    13    14   ar
    14    14    15   ar
    15    15    16   ar
    16    16    17    1
    17    17    18    1
    18    18    19   ar
    19    19    20   ar
    20    20    21   ar
    21    21    22    1
    22    21    23   ar
    23    23    24   ar
    24    18    24   ar
    25    16    25   ar
    26    25    26   ar
    27    13    26   ar
    28     8    26    1
    29     4    27    1
    30    27    28    1
    31    28    29    1
    32    29    30    1
    33    30    31    1
    34    31    32    1
    35    32    33    1
    36    33    34    1
    37    29    34    1
    38    34    35    1
    39    27    36    1
    40    36    37    1
    41     2    37    1
