@<TRIPOS>MOLECULE
*****
 39 42 0 0 0
SMALL
GASTEIGER

@<TRIPOS>ATOM
      1 C           0.0000    0.0000    0.0000 C.3     1  UNL1        0.1385
      2 N           0.0000    0.0000    0.0000 N.am    1  UNL1       -0.2035
      3 C           0.0000    0.0000    0.0000 C.2     1  UNL1        0.2435
      4 O           0.0000    0.0000    0.0000 O.2     1  UNL1       -0.2733
      5 C           0.0000    0.0000    0.0000 C.3     1  UNL1        0.1129
      6 C           0.0000    0.0000    0.0000 C.3     1  UNL1        0.1266
      7 N           0.0000    0.0000    0.0000 N.am    1  UNL1       -0.2008
      8 C           0.0000    0.0000    0.0000 C.2     1  UNL1        0.2598
      9 O           0.0000    0.0000    0.0000 O.2     1  UNL1       -0.2715
     10 C           0.0000    0.0000    0.0000 C.3     1  UNL1        0.1561
     11 C           0.0000    0.0000    0.0000 C.3     1  UNL1        0.0639
     12 C           0.0000    0.0000    0.0000 C.3     1  UNL1        0.1739
     13 O           0.0000    0.0000    0.0000 O.3     1  UNL1       -0.2212
     14 C           0.0000    0.0000    0.0000 C.3     1  UNL1        0.1266
     15 N           0.0000    0.0000    0.0000 N.am    1  UNL1       -0.2699
     16 C           0.0000    0.0000    0.0000 C.2     1  UNL1        0.2329
     17 O           0.0000    0.0000    0.0000 O.2     1  UNL1       -0.2744
     18 C           0.0000    0.0000    0.0000 C.3     1  UNL1        0.1364
     19 C           0.0000    0.0000    0.0000 C.ar    1  UNL1        0.1623
     20 C           0.0000    0.0000    0.0000 C.ar    1  UNL1        0.0541
     21 C           0.0000    0.0000    0.0000 C.ar    1  UNL1        0.1007
     22 C           0.0000    0.0000    0.0000 C.3     1  UNL1        0.0557
     23 N           0.0000    0.0000    0.0000 N.ar    1  UNL1       -0.0817
     24 O           0.0000    0.0000    0.0000 O.2     1  UNL1       -0.3576
     25 C           0.0000    0.0000    0.0000 C.3     1  UNL1        0.0159
     26 C           0.0000    0.0000    0.0000 C.3     1  UNL1        0.0009
     27 C           0.0000    0.0000    0.0000 C.3     1  UNL1        0.0009
     28 C           0.0000    0.0000    0.0000 C.ar    1  UNL1       -0.0021
     29 C           0.0000    0.0000    0.0000 C.ar    1  UNL1       -0.0026
     30 C           0.0000    0.0000    0.0000 C.ar    1  UNL1        0.0003
     31 C           0.0000    0.0000    0.0000 C.ar    1  UNL1        0.0072
     32 C           0.0000    0.0000    0.0000 C.ar    1  UNL1        0.0445
     33 C           0.0000    0.0000    0.0000 C.ar    1  UNL1        0.0660
     34 C           0.0000    0.0000    0.0000 C.3     1  UNL1        0.0526
     35 N           0.0000    0.0000    0.0000 N.ar    1  UNL1       -0.2406
     36 C           0.0000    0.0000    0.0000 C.ar    1  UNL1        0.1341
     37 S           0.0000    0.0000    0.0000 S.2     1  UNL1       -0.0649
     38 C           0.0000    0.0000    0.0000 C.ar    1  UNL1        0.0003
     39 C           0.0000    0.0000    0.0000 C.ar    1  UNL1       -0.0026
@<TRIPOS>BOND
     1     1     2    1
     2     2     3   am
     3     3     4    2
     4     3     5    1
     5     5     6    1
     6     6     7    1
     7     7     8   am
     8     8     9    2
     9     8    10    1
    10    10    11    1
    11    11    12    1
    12    12    13    1
    13    12    14    1
    14    14    15    1
    15    10    15    1
    16    15    16   am
    17    16    17    2
    18    16    18    1
    19    18    19    1
    20    19    20   ar
    21    20    21   ar
    22    21    22    1
    23    21    23   ar
    24    23    24   ar
    25    19    24   ar
    26    18    25    1
    27    25    26    1
    28    25    27    1
    29     6    28    1
    30    28    29   ar
    31    29    30   ar
    32    30    31   ar
    33    31    32    1
    34    32    33   ar
    35    33    34    1
    36    33    35   ar
    37    35    36   ar
    38    36    37   ar
    39    32    37   ar
    40    31    38   ar
    41    38    39   ar
    42    28    39   ar
