@<TRIPOS>MOLECULE
*****
 36 39 0 0 0
SMALL
GASTEIGER

@<TRIPOS>ATOM
      1 C           0.0000    0.0000    0.0000 C.3     1  UNL1        0.1080
      2 N           0.0000    0.0000    0.0000 N.3     1  UNL1       -0.2087
      3 C           0.0000    0.0000    0.0000 C.3     1  UNL1        0.1505
      4 C           0.0000    0.0000    0.0000 C.3     1  UNL1        0.0287
      5 C           0.0000    0.0000    0.0000 C.2     1  UNL1        0.2576
      6 O           0.0000    0.0000    0.0000 O.2     1  UNL1       -0.2718
      7 N           0.0000    0.0000    0.0000 N.am    1  UNL1       -0.1967
      8 C           0.0000    0.0000    0.0000 C.3     1  UNL1        0.1712
      9 C           0.0000    0.0000    0.0000 C.2     1  UNL1        0.2457
     10 O           0.0000    0.0000    0.0000 O.2     1  UNL1       -0.2730
     11 N           0.0000    0.0000    0.0000 N.am    1  UNL1       -0.2740
     12 C           0.0000    0.0000    0.0000 C.3     1  UNL1        0.0938
     13 C           0.0000    0.0000    0.0000 C.3     1  UNL1        0.0236
     14 C           0.0000    0.0000    0.0000 C.3     1  UNL1        0.0283
     15 C           0.0000    0.0000    0.0000 C.3     1  UNL1        0.1218
     16 C           0.0000    0.0000    0.0000 C.ar    1  UNL1        0.1064
     17 N           0.0000    0.0000    0.0000 N.ar    1  UNL1       -0.2378
     18 C           0.0000    0.0000    0.0000 C.ar    1  UNL1        0.1268
     19 C           0.0000    0.0000    0.0000 C.2     1  UNL1        0.2136
     20 O           0.0000    0.0000    0.0000 O.2     1  UNL1       -0.2849
     21 C           0.0000    0.0000    0.0000 C.ar    1  UNL1        0.0435
     22 C           0.0000    0.0000    0.0000 C.ar    1  UNL1        0.0034
     23 C           0.0000    0.0000    0.0000 C.ar    1  UNL1        0.0032
     24 C           0.0000    0.0000    0.0000 C.ar    1  UNL1        0.0369
     25 C           0.0000    0.0000    0.0000 C.ar    1  UNL1        0.1388
     26 O           0.0000    0.0000    0.0000 O.3     1  UNL1       -0.4714
     27 C           0.0000    0.0000    0.0000 C.3     1  UNL1        0.2525
     28 C           0.0000    0.0000    0.0000 C.ar    1  UNL1        0.0401
     29 C           0.0000    0.0000    0.0000 C.ar    1  UNL1        0.0590
     30 S           0.0000    0.0000    0.0000 S.2     1  UNL1       -0.0685
     31 C           0.0000    0.0000    0.0000 C.3     1  UNL1        0.0289
     32 C           0.0000    0.0000    0.0000 C.3     1  UNL1        0.0022
     33 C           0.0000    0.0000    0.0000 C.3     1  UNL1        0.0001
     34 C           0.0000    0.0000    0.0000 C.3     1  UNL1        0.0000
     35 C           0.0000    0.0000    0.0000 C.3     1  UNL1        0.0001
     36 C           0.0000    0.0000    0.0000 C.3     1  UNL1        0.0022
@<TRIPOS>BOND
     1     1     2    1
     2     2     3    1
     3     3     4    1
     4     3     5    1
     5     5     6    2
     6     5     7   am
     7     7     8    1
     8     8     9    1
     9     9    10    2
    10     9    11   am
    11    11    12    1
    12    12    13    1
    13    13    14    1
    14    14    15    1
    15    11    15    1
    16    15    16    1
    17    16    17   ar
    18    17    18   ar
    19    18    19    1
    20    19    20    2
    21    19    21    1
    22    21    22   ar
    23    22    23   ar
    24    23    24   ar
    25    24    25   ar
    26    25    26    1
    27    26    27    1
    28    25    28   ar
    29    21    28   ar
    30    18    29   ar
    31    29    30   ar
    32    16    30   ar
    33     8    31    1
    34    31    32    1
    35    32    33    1
    36    33    34    1
    37    34    35    1
    38    35    36    1
    39    31    36    1
