@<TRIPOS>MOLECULE
*****
 31 33 0 0 0
SMALL
GASTEIGER

@<TRIPOS>ATOM
      1 C           0.0000    0.0000    0.0000 C.3     1  UNL1        0.0018
      2 C           0.0000    0.0000    0.0000 C.3     1  UNL1        0.0198
      3 C           0.0000    0.0000    0.0000 C.3     1  UNL1        0.0759
      4 C           0.0000    0.0000    0.0000 C.3     1  UNL1        0.0220
      5 C           0.0000    0.0000    0.0000 C.3     1  UNL1        0.0310
      6 C           0.0000    0.0000    0.0000 C.3     1  UNL1        0.1535
      7 C           0.0000    0.0000    0.0000 C.2     1  UNL1        0.2597
      8 O           0.0000    0.0000    0.0000 O.2     1  UNL1       -0.2715
      9 N           0.0000    0.0000    0.0000 N.am    1  UNL1       -0.2013
     10 C           0.0000    0.0000    0.0000 C.3     1  UNL1        0.1172
     11 C           0.0000    0.0000    0.0000 C.3     1  UNL1        0.0265
     12 C           0.0000    0.0000    0.0000 C.3     1  UNL1        0.0068
     13 C           0.0000    0.0000    0.0000 C.3     1  UNL1        0.0262
     14 C           0.0000    0.0000    0.0000 C.ar    1  UNL1       -0.0245
     15 C           0.0000    0.0000    0.0000 C.ar    1  UNL1       -0.0045
     16 C           0.0000    0.0000    0.0000 C.ar    1  UNL1       -0.0003
     17 C           0.0000    0.0000    0.0000 C.ar    1  UNL1       -0.0003
     18 C           0.0000    0.0000    0.0000 C.ar    1  UNL1       -0.0029
     19 C           0.0000    0.0000    0.0000 C.ar    1  UNL1       -0.0065
     20 N           0.0000    0.0000    0.0000 N.am    1  UNL1       -0.2732
     21 C           0.0000    0.0000    0.0000 C.2     1  UNL1        0.2458
     22 O           0.0000    0.0000    0.0000 O.2     1  UNL1       -0.2730
     23 C           0.0000    0.0000    0.0000 C.3     1  UNL1        0.1713
     24 C           0.0000    0.0000    0.0000 C.3     1  UNL1        0.0333
     25 N           0.0000    0.0000    0.0000 N.am    1  UNL1       -0.1967
     26 C           0.0000    0.0000    0.0000 C.2     1  UNL1        0.2576
     27 O           0.0000    0.0000    0.0000 O.2     1  UNL1       -0.2718
     28 C           0.0000    0.0000    0.0000 C.3     1  UNL1        0.1505
     29 C           0.0000    0.0000    0.0000 C.3     1  UNL1        0.0287
     30 N           0.0000    0.0000    0.0000 N.3     1  UNL1       -0.2087
     31 C           0.0000    0.0000    0.0000 C.3     1  UNL1        0.1080
@<TRIPOS>BOND
     1     1     2    1
     2     2     3    1
     3     3     4    1
     4     4     5    1
     5     5     6    1
     6     6     7    1
     7     7     8    2
     8     7     9   am
     9     9    10    1
    10    10    11    1
    11    11    12    1
    12    12    13    1
    13    13    14    1
    14    14    15   ar
    15    15    16   ar
    16    16    17   ar
    17    17    18   ar
    18    18    19   ar
    19    14    19   ar
    20    10    19    1
    21     6    20    1
    22     3    20    1
    23    20    21   am
    24    21    22    2
    25    21    23    1
    26    23    24    1
    27    23    25    1
    28    25    26   am
    29    26    27    2
    30    26    28    1
    31    28    29    1
    32    28    30    1
    33    30    31    1
