@<TRIPOS>MOLECULE
*****
 20 22 0 0 0
SMALL
GASTEIGER

@<TRIPOS>ATOM
      1 N           0.0000    0.0000    0.0000 N.pl3   1  UNL1       -0.1281
      2 C           0.0000    0.0000    0.0000 C.ar    1  UNL1        0.0892
      3 C           0.0000    0.0000    0.0000 C.ar    1  UNL1        0.0182
      4 C           0.0000    0.0000    0.0000 C.ar    1  UNL1        0.0061
      5 C           0.0000    0.0000    0.0000 C.ar    1  UNL1        0.0584
      6 C           0.0000    0.0000    0.0000 C.2     1  UNL1        0.2554
      7 O           0.0000    0.0000    0.0000 O.2     1  UNL1       -0.2695
      8 N           0.0000    0.0000    0.0000 N.am    1  UNL1       -0.2158
      9 C           0.0000    0.0000    0.0000 C.3     1  UNL1        0.1616
     10 C           0.0000    0.0000    0.0000 C.3     1  UNL1        0.0394
     11 C           0.0000    0.0000    0.0000 C.3     1  UNL1        0.0895
     12 C           0.0000    0.0000    0.0000 C.2     1  UNL1        0.2480
     13 O           0.0000    0.0000    0.0000 O.2     1  UNL1       -0.2729
     14 N           0.0000    0.0000    0.0000 N.am    1  UNL1       -0.1434
     15 C           0.0000    0.0000    0.0000 C.2     1  UNL1        0.2664
     16 O           0.0000    0.0000    0.0000 O.2     1  UNL1       -0.2711
     17 C           0.0000    0.0000    0.0000 C.2     1  UNL1        0.2555
     18 O           0.0000    0.0000    0.0000 O.2     1  UNL1       -0.2695
     19 C           0.0000    0.0000    0.0000 C.ar    1  UNL1        0.0597
     20 C           0.0000    0.0000    0.0000 C.ar    1  UNL1        0.0227
@<TRIPOS>BOND
     1     1     2    1
     2     2     3   ar
     3     3     4   ar
     4     4     5   ar
     5     5     6    1
     6     6     7    2
     7     6     8   am
     8     8     9    1
     9     9    10    1
    10    10    11    1
    11    11    12    1
    12    12    13    2
    13    12    14   am
    14    14    15   am
    15     9    15    1
    16    15    16    2
    17     8    17   am
    18    17    18    2
    19    17    19    1
    20     5    19   ar
    21    19    20   ar
    22     2    20   ar
