@<TRIPOS>MOLECULE
*****
 20 22 0 0 0
SMALL
GASTEIGER

@<TRIPOS>ATOM
      1 C           0.0000    0.0000    0.0000 C.3     1  UNL1        0.2525
      2 O           0.0000    0.0000    0.0000 O.3     1  UNL1       -0.4713
      3 C           0.0000    0.0000    0.0000 C.ar    1  UNL1        0.1428
      4 C           0.0000    0.0000    0.0000 C.ar    1  UNL1        0.0370
      5 C           0.0000    0.0000    0.0000 C.ar    1  UNL1        0.0028
      6 C           0.0000    0.0000    0.0000 C.ar    1  UNL1       -0.0023
      7 C           0.0000    0.0000    0.0000 C.ar    1  UNL1        0.0050
      8 C           0.0000    0.0000    0.0000 C.ar    1  UNL1        0.0851
      9 C           0.0000    0.0000    0.0000 C.2     1  UNL1        0.2523
     10 O           0.0000    0.0000    0.0000 O.2     1  UNL1       -0.2698
     11 N           0.0000    0.0000    0.0000 N.am    1  UNL1       -0.2651
     12 C           0.0000    0.0000    0.0000 C.3     1  UNL1        0.1549
     13 C           0.0000    0.0000    0.0000 C.3     1  UNL1        0.0389
     14 C           0.0000    0.0000    0.0000 C.3     1  UNL1        0.0895
     15 C           0.0000    0.0000    0.0000 C.2     1  UNL1        0.2480
     16 O           0.0000    0.0000    0.0000 O.2     1  UNL1       -0.2729
     17 N           0.0000    0.0000    0.0000 N.am    1  UNL1       -0.1434
     18 C           0.0000    0.0000    0.0000 C.2     1  UNL1        0.2660
     19 O           0.0000    0.0000    0.0000 O.2     1  UNL1       -0.2711
     20 C           0.0000    0.0000    0.0000 C.3     1  UNL1        0.1211
@<TRIPOS>BOND
     1     1     2    1
     2     2     3    1
     3     3     4   ar
     4     4     5   ar
     5     5     6   ar
     6     6     7   ar
     7     7     8   ar
     8     3     8   ar
     9     8     9    1
    10     9    10    2
    11     9    11   am
    12    11    12    1
    13    12    13    1
    14    13    14    1
    15    14    15    1
    16    15    16    2
    17    15    17   am
    18    17    18   am
    19    12    18    1
    20    18    19    2
    21    11    20    1
    22     7    20    1
