@<TRIPOS>MOLECULE
*****
 19 21 0 0 0
SMALL
GASTEIGER

@<TRIPOS>ATOM
      1 C           0.0000    0.0000    0.0000 C.3     1  UNL1        0.0308
      2 C           0.0000    0.0000    0.0000 C.ar    1  UNL1       -0.0241
      3 C           0.0000    0.0000    0.0000 C.ar    1  UNL1       -0.0045
      4 C           0.0000    0.0000    0.0000 C.ar    1  UNL1       -0.0002
      5 C           0.0000    0.0000    0.0000 C.ar    1  UNL1        0.0042
      6 C           0.0000    0.0000    0.0000 C.ar    1  UNL1        0.0509
      7 C           0.0000    0.0000    0.0000 C.ar    1  UNL1       -0.0019
      8 C           0.0000    0.0000    0.0000 C.3     1  UNL1        0.1207
      9 N           0.0000    0.0000    0.0000 N.am    1  UNL1       -0.2652
     10 C           0.0000    0.0000    0.0000 C.3     1  UNL1        0.1549
     11 C           0.0000    0.0000    0.0000 C.3     1  UNL1        0.0389
     12 C           0.0000    0.0000    0.0000 C.3     1  UNL1        0.0895
     13 C           0.0000    0.0000    0.0000 C.2     1  UNL1        0.2480
     14 O           0.0000    0.0000    0.0000 O.2     1  UNL1       -0.2729
     15 N           0.0000    0.0000    0.0000 N.am    1  UNL1       -0.1434
     16 C           0.0000    0.0000    0.0000 C.2     1  UNL1        0.2660
     17 O           0.0000    0.0000    0.0000 O.2     1  UNL1       -0.2711
     18 C           0.0000    0.0000    0.0000 C.2     1  UNL1        0.2493
     19 O           0.0000    0.0000    0.0000 O.2     1  UNL1       -0.2699
@<TRIPOS>BOND
     1     1     2    1
     2     2     3   ar
     3     3     4   ar
     4     4     5   ar
     5     5     6   ar
     6     6     7   ar
     7     2     7   ar
     8     7     8    1
     9     8     9    1
    10     9    10    1
    11    10    11    1
    12    11    12    1
    13    12    13    1
    14    13    14    2
    15    13    15   am
    16    15    16   am
    17    10    16    1
    18    16    17    2
    19     9    18   am
    20     6    18    1
    21    18    19    2
