@<TRIPOS>MOLECULE
*****
 20 22 0 0 0
SMALL
GASTEIGER

@<TRIPOS>ATOM
      1 N           0.0000    0.0000    0.0000 N.pl3   1  UNL1       -0.1279
      2 C           0.0000    0.0000    0.0000 C.ar    1  UNL1        0.0936
      3 C           0.0000    0.0000    0.0000 C.ar    1  UNL1        0.0182
      4 C           0.0000    0.0000    0.0000 C.ar    1  UNL1        0.0015
      5 C           0.0000    0.0000    0.0000 C.ar    1  UNL1        0.0048
      6 C           0.0000    0.0000    0.0000 C.ar    1  UNL1        0.0597
      7 C           0.0000    0.0000    0.0000 C.ar    1  UNL1        0.0751
      8 C           0.0000    0.0000    0.0000 C.2     1  UNL1        0.2568
      9 O           0.0000    0.0000    0.0000 O.2     1  UNL1       -0.2694
     10 N           0.0000    0.0000    0.0000 N.am    1  UNL1       -0.2157
     11 C           0.0000    0.0000    0.0000 C.3     1  UNL1        0.1616
     12 C           0.0000    0.0000    0.0000 C.3     1  UNL1        0.0394
     13 C           0.0000    0.0000    0.0000 C.3     1  UNL1        0.0895
     14 C           0.0000    0.0000    0.0000 C.2     1  UNL1        0.2480
     15 O           0.0000    0.0000    0.0000 O.2     1  UNL1       -0.2729
     16 N           0.0000    0.0000    0.0000 N.am    1  UNL1       -0.1434
     17 C           0.0000    0.0000    0.0000 C.2     1  UNL1        0.2664
     18 O           0.0000    0.0000    0.0000 O.2     1  UNL1       -0.2711
     19 C           0.0000    0.0000    0.0000 C.2     1  UNL1        0.2555
     20 O           0.0000    0.0000    0.0000 O.2     1  UNL1       -0.2695
@<TRIPOS>BOND
     1     1     2    1
     2     2     3   ar
     3     3     4   ar
     4     4     5   ar
     5     5     6   ar
     6     6     7   ar
     7     2     7   ar
     8     7     8    1
     9     8     9    2
    10     8    10   am
    11    10    11    1
    12    11    12    1
    13    12    13    1
    14    13    14    1
    15    14    15    2
    16    14    16   am
    17    16    17   am
    18    11    17    1
    19    17    18    2
    20    10    19   am
    21     6    19    1
    22    19    20    2
