@<TRIPOS>MOLECULE
*****
 18 20 0 0 0
SMALL
GASTEIGER

@<TRIPOS>ATOM
      1 O           0.0000    0.0000    0.0000 O.2     1  UNL1       -0.2729
      2 C           0.0000    0.0000    0.0000 C.2     1  UNL1        0.2480
      3 C           0.0000    0.0000    0.0000 C.3     1  UNL1        0.0897
      4 C           0.0000    0.0000    0.0000 C.3     1  UNL1        0.0419
      5 C           0.0000    0.0000    0.0000 C.3     1  UNL1        0.1701
      6 N           0.0000    0.0000    0.0000 N.ar    1  UNL1       -0.2554
      7 C           0.0000    0.0000    0.0000 C.ar    1  UNL1        0.4223
      8 O           0.0000    0.0000    0.0000 O.2     1  UNL1       -0.2226
      9 O           0.0000    0.0000    0.0000 O.2     1  UNL1       -0.4068
     10 C           0.0000    0.0000    0.0000 C.ar    1  UNL1        0.1660
     11 C           0.0000    0.0000    0.0000 C.ar    1  UNL1        0.0392
     12 C           0.0000    0.0000    0.0000 C.ar    1  UNL1        0.0032
     13 C           0.0000    0.0000    0.0000 C.ar    1  UNL1        0.0017
     14 C           0.0000    0.0000    0.0000 C.ar    1  UNL1        0.0205
     15 C           0.0000    0.0000    0.0000 C.ar    1  UNL1        0.1004
     16 C           0.0000    0.0000    0.0000 C.2     1  UNL1        0.2687
     17 O           0.0000    0.0000    0.0000 O.2     1  UNL1       -0.2709
     18 N           0.0000    0.0000    0.0000 N.am    1  UNL1       -0.1432
@<TRIPOS>BOND
     1     1     2    2
     2     2     3    1
     3     3     4    1
     4     4     5    1
     5     5     6    1
     6     6     7   ar
     7     7     8    2
     8     7     9   ar
     9     9    10   ar
    10    10    11   ar
    11    11    12   ar
    12    12    13   ar
    13    13    14   ar
    14    14    15   ar
    15    10    15   ar
    16     6    15   ar
    17     5    16    1
    18    16    17    2
    19    16    18   am
    20     2    18   am
