@<TRIPOS>MOLECULE
*****
 32 34 0 0 0
SMALL
GASTEIGER

@<TRIPOS>ATOM
      1 C           0.0000    0.0000    0.0000 C.3     1  UNL1        0.0555
      2 C           0.0000    0.0000    0.0000 C.ar    1  UNL1        0.0970
      3 N           0.0000    0.0000    0.0000 N.ar    1  UNL1       -0.2086
      4 C           0.0000    0.0000    0.0000 C.ar    1  UNL1        0.2848
      5 O           0.0000    0.0000    0.0000 O.2     1  UNL1       -0.4315
      6 C           0.0000    0.0000    0.0000 C.ar    1  UNL1        0.1607
      7 C           0.0000    0.0000    0.0000 C.ar    1  UNL1        0.0358
      8 C           0.0000    0.0000    0.0000 C.ar    1  UNL1        0.0028
      9 C           0.0000    0.0000    0.0000 C.ar    1  UNL1       -0.0025
     10 C           0.0000    0.0000    0.0000 C.ar    1  UNL1       -0.0006
     11 C           0.0000    0.0000    0.0000 C.3     1  UNL1        0.1415
     12 N           0.0000    0.0000    0.0000 N.am    1  UNL1       -0.1992
     13 C           0.0000    0.0000    0.0000 C.2     1  UNL1        0.2598
     14 O           0.0000    0.0000    0.0000 O.2     1  UNL1       -0.2715
     15 C           0.0000    0.0000    0.0000 C.3     1  UNL1        0.1562
     16 C           0.0000    0.0000    0.0000 C.3     1  UNL1        0.0639
     17 C           0.0000    0.0000    0.0000 C.3     1  UNL1        0.1739
     18 O           0.0000    0.0000    0.0000 O.3     1  UNL1       -0.2212
     19 C           0.0000    0.0000    0.0000 C.3     1  UNL1        0.1267
     20 N           0.0000    0.0000    0.0000 N.am    1  UNL1       -0.2689
     21 C           0.0000    0.0000    0.0000 C.2     1  UNL1        0.2459
     22 O           0.0000    0.0000    0.0000 O.2     1  UNL1       -0.2730
     23 C           0.0000    0.0000    0.0000 C.3     1  UNL1        0.1716
     24 N           0.0000    0.0000    0.0000 N.am    1  UNL1       -0.1902
     25 C           0.0000    0.0000    0.0000 C.2     1  UNL1        0.3205
     26 O           0.0000    0.0000    0.0000 O.2     1  UNL1       -0.2633
     27 C           0.0000    0.0000    0.0000 C.3     1  UNL1        0.0269
     28 C           0.0000    0.0000    0.0000 C.3     1  UNL1        0.0022
     29 C           0.0000    0.0000    0.0000 C.3     1  UNL1        0.0022
     30 C           0.0000    0.0000    0.0000 C.3     1  UNL1        0.0022
     31 C           0.0000    0.0000    0.0000 C.ar    1  UNL1       -0.0025
     32 C           0.0000    0.0000    0.0000 C.ar    1  UNL1        0.0028
@<TRIPOS>BOND
     1     1     2    1
     2     2     3   ar
     3     3     4   ar
     4     4     5   ar
     5     5     6   ar
     6     2     6   ar
     7     6     7    1
     8     7     8   ar
     9     8     9   ar
    10     9    10   ar
    11    10    11    1
    12    11    12    1
    13    12    13   am
    14    13    14    2
    15    13    15    1
    16    15    16    1
    17    16    17    1
    18    17    18    1
    19    17    19    1
    20    19    20    1
    21    15    20    1
    22    20    21   am
    23    21    22    2
    24    21    23    1
    25    23    24    1
    26    24    25   am
    27    25    26    2
    28    23    27    1
    29    27    28    1
    30    27    29    1
    31    27    30    1
    32    10    31   ar
    33    31    32   ar
    34     7    32   ar
