@<TRIPOS>MOLECULE
*****
 31 32 0 0 0
SMALL
GASTEIGER

@<TRIPOS>ATOM
      1 C           0.0000    0.0000    0.0000 C.3     1  UNL1        0.1080
      2 N           0.0000    0.0000    0.0000 N.3     1  UNL1       -0.2087
      3 C           0.0000    0.0000    0.0000 C.3     1  UNL1        0.1505
      4 C           0.0000    0.0000    0.0000 C.3     1  UNL1        0.0287
      5 C           0.0000    0.0000    0.0000 C.2     1  UNL1        0.2576
      6 O           0.0000    0.0000    0.0000 O.2     1  UNL1       -0.2718
      7 N           0.0000    0.0000    0.0000 N.am    1  UNL1       -0.1967
      8 C           0.0000    0.0000    0.0000 C.3     1  UNL1        0.1711
      9 C           0.0000    0.0000    0.0000 C.2     1  UNL1        0.2458
     10 O           0.0000    0.0000    0.0000 O.2     1  UNL1       -0.2730
     11 N           0.0000    0.0000    0.0000 N.am    1  UNL1       -0.2700
     12 C           0.0000    0.0000    0.0000 C.3     1  UNL1        0.1128
     13 C           0.0000    0.0000    0.0000 C.3     1  UNL1        0.1137
     14 N           0.0000    0.0000    0.0000 N.3     1  UNL1       -0.1310
     15 C           0.0000    0.0000    0.0000 C.3     1  UNL1        0.0500
     16 C           0.0000    0.0000    0.0000 C.3     1  UNL1        0.1554
     17 C           0.0000    0.0000    0.0000 C.2     1  UNL1        0.2638
     18 O           0.0000    0.0000    0.0000 O.2     1  UNL1       -0.2712
     19 N           0.0000    0.0000    0.0000 N.am    1  UNL1       -0.1733
     20 C           0.0000    0.0000    0.0000 C.ar    1  UNL1        0.1281
     21 C           0.0000    0.0000    0.0000 C.ar    1  UNL1        0.1575
     22 F           0.0000    0.0000    0.0000 F       1  UNL1       -0.2027
     23 C           0.0000    0.0000    0.0000 C.ar    1  UNL1        0.0311
     24 C           0.0000    0.0000    0.0000 C.ar    1  UNL1        0.0047
     25 C           0.0000    0.0000    0.0000 C.ar    1  UNL1        0.0311
     26 C           0.0000    0.0000    0.0000 C.ar    1  UNL1        0.1575
     27 F           0.0000    0.0000    0.0000 F       1  UNL1       -0.2027
     28 C           0.0000    0.0000    0.0000 C.3     1  UNL1        0.0269
     29 C           0.0000    0.0000    0.0000 C.3     1  UNL1        0.0022
     30 C           0.0000    0.0000    0.0000 C.3     1  UNL1        0.0022
     31 C           0.0000    0.0000    0.0000 C.3     1  UNL1        0.0022
@<TRIPOS>BOND
     1     1     2    1
     2     2     3    1
     3     3     4    1
     4     3     5    1
     5     5     6    2
     6     5     7   am
     7     7     8    1
     8     8     9    1
     9     9    10    2
    10     9    11   am
    11    11    12    1
    12    12    13    1
    13    13    14    1
    14    13    15    1
    15    15    16    1
    16    11    16    1
    17    16    17    1
    18    17    18    2
    19    17    19   am
    20    19    20    1
    21    20    21   ar
    22    21    22    1
    23    21    23   ar
    24    23    24   ar
    25    24    25   ar
    26    25    26   ar
    27    20    26   ar
    28    26    27    1
    29     8    28    1
    30    28    29    1
    31    28    30    1
    32    28    31    1
