@<TRIPOS>MOLECULE
*****
 30 29 0 0 0
SMALL
GASTEIGER

@<TRIPOS>ATOM
      1 N           1.0288    0.0484   -0.0827 N.3     1  UNL1       -0.3300
      2 C           2.4988    0.0484   -0.0827 C.3     1  UNL1       -0.0069
      3 C           3.0055    1.4513    0.2096 C.3     1  UNL1       -0.0406
      4 C           4.5255    1.4513    0.2096 C.3     1  UNL1       -0.0519
      5 C           5.0321    2.8543    0.5018 C.3     1  UNL1       -0.0530
      6 C           6.5521    2.8543    0.5018 C.3     1  UNL1       -0.0530
      7 C           7.0588    4.2572    0.7940 C.3     1  UNL1       -0.0527
      8 C           8.5788    4.2572    0.7940 C.3     1  UNL1       -0.0466
      9 C           9.0854    5.6602    1.0862 C.3     1  UNL1        0.0028
     10 C          10.6054    5.6602    1.0862 C.2     1  UNL1        0.1203
     11 O          11.2409    6.7377    1.3106 O.2     1  UNL1       -0.3010
     12 H           0.6888   -0.8931   -0.2788 H       1  UNL1        0.1182
     13 H           0.6888    0.6889   -0.7999 H       1  UNL1        0.1182
     14 H           2.8555   -0.2673   -1.0408 H       1  UNL1        0.0422
     15 H           2.8555   -0.6236    0.6698 H       1  UNL1        0.0422
     16 H           2.6488    1.7670    1.1677 H       1  UNL1        0.0277
     17 H           2.6488    2.1233   -0.5429 H       1  UNL1        0.0277
     18 H           4.8821    1.1357   -0.7486 H       1  UNL1        0.0266
     19 H           4.8821    0.7794    0.9620 H       1  UNL1        0.0266
     20 H           4.6754    3.1699    1.4599 H       1  UNL1        0.0265
     21 H           4.6754    3.5262   -0.2507 H       1  UNL1        0.0265
     22 H           6.9088    2.5386   -0.4564 H       1  UNL1        0.0265
     23 H           6.9088    2.1823    1.2542 H       1  UNL1        0.0265
     24 H           6.7021    4.5729    1.7521 H       1  UNL1        0.0265
     25 H           6.7021    4.9292    0.0416 H       1  UNL1        0.0265
     26 H           8.9354    3.9416   -0.1642 H       1  UNL1        0.0269
     27 H           8.9354    3.5853    1.5464 H       1  UNL1        0.0269
     28 H           8.7288    5.9759    2.0444 H       1  UNL1        0.0339
     29 H           8.7288    6.3322    0.3338 H       1  UNL1        0.0339
     30 H          11.1214    4.7852    0.9040 H       1  UNL1        0.1026
@<TRIPOS>BOND
     1     1     2    1
     2     2     3    1
     3     3     4    1
     4     4     5    1
     5     5     6    1
     6     6     7    1
     7     7     8    1
     8     8     9    1
     9     9    10    1
    10    10    11    2
    11     1    12    1
    12     1    13    1
    13     2    14    1
    14     2    15    1
    15     3    16    1
    16     3    17    1
    17     4    18    1
    18     4    19    1
    19     5    20    1
    20     5    21    1
    21     6    22    1
    22     6    23    1
    23     7    24    1
    24     7    25    1
    25     8    26    1
    26     8    27    1
    27     9    28    1
    28     9    29    1
    29    10    30    1
