@<TRIPOS>MOLECULE
*****
 49 49 0 0 0
SMALL
GASTEIGER

@<TRIPOS>ATOM
      1 C           0.9782   -0.0291   -0.0932 C.3     1  UNL1       -0.0632
      2 C           2.4982   -0.0291   -0.0932 C.3     1  UNL1       -0.0323
      3 C           3.0049   -1.4260   -0.4130 C.3     1  UNL1        0.0474
      4 O           4.4249   -1.4260   -0.4130 O.3     1  UNL1       -0.3798
      5 C           4.8982   -2.7310   -0.7118 C.3     1  UNL1        0.0477
      6 C           6.4182   -2.7310   -0.7118 C.3     1  UNL1       -0.0295
      7 C           6.9249   -4.1279   -1.0316 C.3     1  UNL1       -0.0510
      8 C           8.4449   -4.1279   -1.0316 C.3     1  UNL1       -0.0529
      9 C           8.9515   -5.5249   -1.3514 C.3     1  UNL1       -0.0514
     10 C          10.4715   -5.5249   -1.3514 C.3     1  UNL1       -0.0333
     11 C          10.9782   -6.9218   -1.6713 C.3     1  UNL1        0.0432
     12 N          12.4482   -6.9218   -1.6713 N.ar    1  UNL1       -0.2515
     13 C          13.1446   -8.0976   -1.9405 C.ar    1  UNL1        0.0486
     14 C          14.5848   -8.0976   -1.9405 C.ar    1  UNL1        0.0829
     15 C          15.3448   -6.8144   -1.6467 C.3     1  UNL1       -0.0051
     16 C          14.3571   -5.6883   -1.3888 C.3     1  UNL1       -0.0242
     17 C          15.1171   -4.4051   -1.0951 C.3     1  UNL1        0.0446
     18 O          14.1943   -3.3530   -0.8542 O.3     1  UNL1       -0.3950
     19 N          15.2812   -9.2734   -2.2097 N.ar    1  UNL1       -0.1345
     20 N          13.1209   -5.7860   -1.4112 N.ar    1  UNL1       -0.0655
     21 H           0.6215    0.9543    0.1320 H       1  UNL1        0.0230
     22 H           0.6215   -0.7157    0.6459 H       1  UNL1        0.0230
     23 H           0.6215   -0.3258   -1.0574 H       1  UNL1        0.0230
     24 H           2.8549    0.2676    0.8710 H       1  UNL1        0.0285
     25 H           2.8549    0.6576   -0.8322 H       1  UNL1        0.0285
     26 H           2.6482   -1.7227   -1.3772 H       1  UNL1        0.0560
     27 H           2.6482   -2.1126    0.3260 H       1  UNL1        0.0560
     28 H           4.5415   -3.0277   -1.6760 H       1  UNL1        0.0560
     29 H           4.5415   -3.4177    0.0273 H       1  UNL1        0.0560
     30 H           6.7749   -2.4343    0.2524 H       1  UNL1        0.0287
     31 H           6.7749   -2.0443   -1.4508 H       1  UNL1        0.0287
     32 H           6.5682   -4.4246   -1.9958 H       1  UNL1        0.0266
     33 H           6.5682   -4.8146   -0.2926 H       1  UNL1        0.0266
     34 H           8.8015   -3.8312   -0.0674 H       1  UNL1        0.0265
     35 H           8.8015   -3.4413   -1.7707 H       1  UNL1        0.0265
     36 H           8.5949   -5.8216   -2.3156 H       1  UNL1        0.0266
     37 H           8.5949   -6.2115   -0.6124 H       1  UNL1        0.0266
     38 H          10.8282   -5.2282   -0.3872 H       1  UNL1        0.0283
     39 H          10.8282   -4.8382   -2.0905 H       1  UNL1        0.0283
     40 H          10.6215   -7.2185   -2.6354 H       1  UNL1        0.0509
     41 H          10.6215   -7.6084   -0.9322 H       1  UNL1        0.0509
     42 H          12.6286   -8.9688   -2.1399 H       1  UNL1        0.0845
     43 H          15.9600   -6.5642   -2.4856 H       1  UNL1        0.0330
     44 H          15.9600   -6.9542   -0.7824 H       1  UNL1        0.0330
     45 H          13.7419   -5.9385   -0.5499 H       1  UNL1        0.0291
     46 H          13.7419   -5.5485   -2.2531 H       1  UNL1        0.0291
     47 H          15.7322   -4.1549   -1.9340 H       1  UNL1        0.0557
     48 H          15.7322   -4.5448   -0.2308 H       1  UNL1        0.0557
     49 H          13.6366   -3.2263   -1.6377 H       1  UNL1        0.2094
@<TRIPOS>BOND
     1     1     2    1
     2     2     3    1
     3     3     4    1
     4     4     5    1
     5     5     6    1
     6     6     7    1
     7     7     8    1
     8     8     9    1
     9     9    10    1
    10    10    11    1
    11    11    12    1
    12    12    13   ar
    13    13    14   ar
    14    14    15    1
    15    15    16    1
    16    16    17    1
    17    17    18    1
    18    14    19   ar
    19    19    20   ar
    20    12    20   ar
    21     1    21    1
    22     1    22    1
    23     1    23    1
    24     2    24    1
    25     2    25    1
    26     3    26    1
    27     3    27    1
    28     5    28    1
    29     5    29    1
    30     6    30    1
    31     6    31    1
    32     7    32    1
    33     7    33    1
    34     8    34    1
    35     8    35    1
    36     9    36    1
    37     9    37    1
    38    10    38    1
    39    10    39    1
    40    11    40    1
    41    11    41    1
    42    13    42    1
    43    15    43    1
    44    15    44    1
    45    16    45    1
    46    16    46    1
    47    17    47    1
    48    17    48    1
    49    18    49    1
