@<TRIPOS>MOLECULE
*****
 13 12 0 0 0
SMALL
GASTEIGER

@<TRIPOS>ATOM
      1 C           0.9604    0.0658   -0.0640 C.3     1  UNL1        0.0365
      2 O           2.3804    0.0658   -0.0640 O.3     1  UNL1       -0.3807
      3 C           2.8537    0.0544   -1.4028 C.3     1  UNL1        0.0704
      4 C           4.3737    0.0544   -1.4028 C.3     1  UNL1        0.0675
      5 O           4.8471    0.0429   -2.7415 O.3     1  UNL1       -0.3927
      6 H           0.6038    0.0745    0.9447 H       1  UNL1        0.0524
      7 H           0.6037   -0.8121   -0.5609 H       1  UNL1        0.0524
      8 H           0.6037    0.9351   -0.5759 H       1  UNL1        0.0524
      9 H           2.4971    0.9237   -1.9146 H       1  UNL1        0.0582
     10 H           2.4971   -0.8236   -1.8997 H       1  UNL1        0.0582
     11 H           4.7304   -0.8149   -0.8909 H       1  UNL1        0.0580
     12 H           4.7304    0.9323   -0.9059 H       1  UNL1        0.0580
     13 H           4.5237   -0.7530   -3.1920 H       1  UNL1        0.2095
@<TRIPOS>BOND
     1     1     2    1
     2     2     3    1
     3     3     4    1
     4     4     5    1
     5     1     6    1
     6     1     7    1
     7     1     8    1
     8     3     9    1
     9     3    10    1
    10     4    11    1
    11     4    12    1
    12     5    13    1
