@<TRIPOS>MOLECULE
*****
 31 32 0 0 0
SMALL
GASTEIGER

@<TRIPOS>ATOM
      1 C           0.9587    0.0848    0.0332 C.3     1  UNL1       -0.0027
      2 C           2.4787    0.0848    0.0332 C.3     1  UNL1       -0.0247
      3 C           2.9853    0.4615   -1.3495 C.3     1  UNL1        0.0128
      4 N           2.4953    1.8017   -1.7025 N.3     1  UNL1       -0.2969
      5 C           1.0253    1.8017   -1.7025 C.3     1  UNL1        0.0118
      6 C           0.5186    3.1875   -2.0676 C.3     1  UNL1        0.0087
      7 N          -0.9514    3.1875   -2.0676 N.3     1  UNL1       -0.3136
      8 C          -1.4414    4.5277   -2.4206 C.3     1  UNL1        0.0087
      9 C           2.9853    2.1661   -3.0397 C.3     1  UNL1        0.0118
     10 C           4.5053    0.4615   -1.3495 C.3     1  UNL1       -0.0247
     11 C           5.0120    0.8383   -2.7321 C.3     1  UNL1       -0.0027
     12 N           0.4687   -0.2796    1.3704 N.3     1  UNL1       -0.3159
     13 H           0.6020   -0.6255   -0.6831 H       1  UNL1        0.0424
     14 H           0.6020    1.0603   -0.2238 H       1  UNL1        0.0424
     15 H           2.8353   -0.8907    0.2902 H       1  UNL1        0.0293
     16 H           2.8353    0.7951    0.7495 H       1  UNL1        0.0293
     17 H           2.6286   -0.2488   -2.0658 H       1  UNL1        0.0463
     18 H           0.6686    1.5365   -0.7292 H       1  UNL1        0.0439
     19 H           0.6686    1.0914   -2.4189 H       1  UNL1        0.0439
     20 H           0.8753    3.4527   -3.0409 H       1  UNL1        0.0437
     21 H           0.8753    3.8978   -1.3512 H       1  UNL1        0.0437
     22 H          -1.2914    2.9347   -1.1397 H       1  UNL1        0.1220
     23 H          -1.5782    5.2937   -1.6862 H       1  UNL1        0.0437
     24 H          -2.2117    5.0001   -2.9936 H       1  UNL1        0.0437
     25 H           3.8661    2.7710   -3.0970 H       1  UNL1        0.0439
     26 H           3.2999    1.5263   -3.8376 H       1  UNL1        0.0439
     27 H           4.8620   -0.5140   -1.0925 H       1  UNL1        0.0293
     28 H           4.8620    1.1718   -0.6331 H       1  UNL1        0.0293
     29 H           5.3501    0.1313   -3.4606 H       1  UNL1        0.0424
     30 H           5.5146    1.5701   -3.3294 H       1  UNL1        0.0424
     31 H           0.1463    0.3944    2.0648 H       1  UNL1        0.1219
@<TRIPOS>BOND
     1     1     2    1
     2     2     3    1
     3     3     4    1
     4     4     5    1
     5     5     6    1
     6     6     7    1
     7     7     8    1
     8     8     9    1
     9     4     9    1
    10     3    10    1
    11    10    11    1
    12    11    12    1
    13     1    12    1
    14     1    13    1
    15     1    14    1
    16     2    15    1
    17     2    16    1
    18     3    17    1
    19     5    18    1
    20     5    19    1
    21     6    20    1
    22     6    21    1
    23     7    22    1
    24     8    23    1
    25     8    24    1
    26     9    25    1
    27     9    26    1
    28    10    27    1
    29    10    28    1
    30    11    29    1
    31    11    30    1
    32    12    31    1
