@<TRIPOS>MOLECULE
*****
 33 33 0 0 0
SMALL
GASTEIGER

@<TRIPOS>ATOM
      1 C           0.9274    0.0479   -0.0494 C.3     1  UNL1       -0.0653
      2 C           2.4474    0.0479   -0.0494 C.3     1  UNL1       -0.0555
      3 C           2.9541   -0.8756   -1.1452 C.3     1  UNL1       -0.0450
      4 C           4.4741   -0.8756   -1.1452 C.3     1  UNL1        0.0241
      5 C           4.9807   -1.7991   -2.2410 C.2     1  UNL1        0.2156
      6 O           4.1549   -2.4216   -2.9797 O.2     1  UNL1       -0.2756
      7 N           6.4260   -1.9722   -2.4464 N.am    1  UNL1       -0.2990
      8 C           6.9160   -2.8654   -3.5062 C.3     1  UNL1        0.0275
      9 C           8.4360   -2.8654   -3.5062 C.3     1  UNL1        0.0145
     10 N           8.9260   -3.7585   -4.5660 N.3     1  UNL1       -0.3024
     11 C           8.4360   -3.2873   -5.8694 C.3     1  UNL1       -0.0126
     12 C          10.3960   -3.7585   -4.5660 C.3     1  UNL1        0.0145
     13 C           7.3812   -1.2522   -1.5921 C.3     1  UNL1        0.0275
     14 H           0.5708    0.6980    0.7220 H       1  UNL1        0.0230
     15 H           0.5708   -0.9452    0.1279 H       1  UNL1        0.0230
     16 H           0.5708    0.3909   -0.9981 H       1  UNL1        0.0230
     17 H           2.8041   -0.2951    0.8993 H       1  UNL1        0.0263
     18 H           2.8041    1.0410   -0.2267 H       1  UNL1        0.0263
     19 H           2.5974   -0.5326   -2.0939 H       1  UNL1        0.0270
     20 H           2.5974   -1.8687   -0.9679 H       1  UNL1        0.0270
     21 H           4.8308   -1.2186   -0.1965 H       1  UNL1        0.0358
     22 H           4.8308    0.1175   -1.3225 H       1  UNL1        0.0358
     23 H           6.5593   -2.5224   -4.4549 H       1  UNL1        0.0477
     24 H           6.5593   -3.8585   -3.3289 H       1  UNL1        0.0477
     25 H           8.7927   -3.2084   -2.5575 H       1  UNL1        0.0442
     26 H           8.7927   -1.8723   -3.6835 H       1  UNL1        0.0442
     27 H           7.3660   -3.2873   -5.8694 H       1  UNL1        0.0391
     28 H           8.7926   -3.9374   -6.6408 H       1  UNL1        0.0391
     29 H           8.7926   -2.2942   -6.0467 H       1  UNL1        0.0391
     30 H          10.9507   -3.2657   -5.3369 H       1  UNL1        0.0442
     31 H          11.1942   -4.4660   -4.4813 H       1  UNL1        0.0442
     32 H           7.3961   -0.1862   -1.6828 H       1  UNL1        0.0477
     33 H           7.4009   -1.2498   -0.5223 H       1  UNL1        0.0477
@<TRIPOS>BOND
     1     1     2    1
     2     2     3    1
     3     3     4    1
     4     4     5    1
     5     5     6    2
     6     5     7   am
     7     7     8    1
     8     8     9    1
     9     9    10    1
    10    10    11    1
    11    10    12    1
    12    12    13    1
    13     7    13    1
    14     1    14    1
    15     1    15    1
    16     1    16    1
    17     2    17    1
    18     2    18    1
    19     3    19    1
    20     3    20    1
    21     4    21    1
    22     4    22    1
    23     8    23    1
    24     8    24    1
    25     9    25    1
    26     9    26    1
    27    11    27    1
    28    11    28    1
    29    11    29    1
    30    12    30    1
    31    12    31    1
    32    13    32    1
    33    13    33    1
