@<TRIPOS>MOLECULE
*****
 42 41 0 0 0
SMALL
GASTEIGER

@<TRIPOS>ATOM
      1 C           1.0568   -0.0777    0.0272 C.3     1  UNL1        0.0121
      2 C           2.5768   -0.0777    0.0272 C.2     1  UNL1        0.2100
      3 O           3.2123    0.0947   -1.0599 O.2     1  UNL1       -0.2761
      4 N           3.3118   -0.2771    1.2845 N.am    1  UNL1       -0.3133
      5 C           4.7818   -0.2771    1.2845 C.3     1  UNL1        0.0350
      6 C           5.2885   -0.5015    2.6999 C.3     1  UNL1        0.0632
      7 O           6.7085   -0.5015    2.6999 O.3     1  UNL1       -0.3760
      8 C           7.1818   -0.7112    4.0221 C.3     1  UNL1        0.0711
      9 C           8.7018   -0.7112    4.0221 C.3     1  UNL1        0.0711
     10 O           9.1752   -0.9209    5.3444 O.3     1  UNL1       -0.3752
     11 C          10.5952   -0.9209    5.3444 C.3     1  UNL1        0.0711
     12 C          11.1018   -1.1454    6.7598 C.3     1  UNL1        0.0711
     13 O          12.5218   -1.1454    6.7598 O.3     1  UNL1       -0.3752
     14 C          12.9951   -1.3551    8.0821 C.3     1  UNL1        0.0711
     15 C          14.5151   -1.3551    8.0821 C.3     1  UNL1        0.0715
     16 O          14.9885   -1.5648    9.4043 O.3     1  UNL1       -0.3703
     17 C          16.4085   -1.5648    9.4043 C.3     1  UNL1        0.1028
     18 C          16.9151   -1.7893   10.8197 C.2     1  UNL1        0.1458
     19 O          18.1646   -1.8257   11.0491 O.2     1  UNL1       -0.2986
     20 H           0.7002    0.0803   -0.9692 H       1  UNL1        0.0322
     21 H           0.7002    0.7062    0.6622 H       1  UNL1        0.0322
     22 H           0.7002   -1.0195    0.3885 H       1  UNL1        0.0322
     23 H           2.8196   -0.4106    2.1266 H       1  UNL1        0.1488
     24 H           5.1385    0.6648    0.9232 H       1  UNL1        0.0484
     25 H           5.1385   -1.0609    0.6495 H       1  UNL1        0.0484
     26 H           4.9318   -1.4434    3.0612 H       1  UNL1        0.0575
     27 H           4.9318    0.2823    3.3349 H       1  UNL1        0.0575
     28 H           6.8252   -1.6531    4.3835 H       1  UNL1        0.0583
     29 H           6.8252    0.0726    4.6572 H       1  UNL1        0.0583
     30 H           9.0585    0.2306    3.6608 H       1  UNL1        0.0583
     31 H           9.0585   -1.4951    3.3871 H       1  UNL1        0.0583
     32 H          10.9518    0.0209    4.9831 H       1  UNL1        0.0583
     33 H          10.9518   -1.7048    4.7094 H       1  UNL1        0.0583
     34 H          10.7451   -2.0873    7.1211 H       1  UNL1        0.0583
     35 H          10.7451   -0.3616    7.3948 H       1  UNL1        0.0583
     36 H          12.6385   -2.2970    8.4434 H       1  UNL1        0.0583
     37 H          12.6385   -0.5713    8.7171 H       1  UNL1        0.0583
     38 H          14.8718   -0.4132    7.7207 H       1  UNL1        0.0583
     39 H          14.8718   -2.1390    7.4470 H       1  UNL1        0.0583
     40 H          16.7651   -0.6229    9.0430 H       1  UNL1        0.0636
     41 H          16.7651   -2.3487    8.7693 H       1  UNL1        0.0636
     42 H          16.2445   -1.9121   11.5944 H       1  UNL1        0.1051
@<TRIPOS>BOND
     1     1     2    1
     2     2     3    2
     3     2     4   am
     4     4     5    1
     5     5     6    1
     6     6     7    1
     7     7     8    1
     8     8     9    1
     9     9    10    1
    10    10    11    1
    11    11    12    1
    12    12    13    1
    13    13    14    1
    14    14    15    1
    15    15    16    1
    16    16    17    1
    17    17    18    1
    18    18    19    2
    19     1    20    1
    20     1    21    1
    21     1    22    1
    22     4    23    1
    23     5    24    1
    24     5    25    1
    25     6    26    1
    26     6    27    1
    27     8    28    1
    28     8    29    1
    29     9    30    1
    30     9    31    1
    31    11    32    1
    32    11    33    1
    33    12    34    1
    34    12    35    1
    35    14    36    1
    36    14    37    1
    37    15    38    1
    38    15    39    1
    39    17    40    1
    40    17    41    1
    41    18    42    1
