@<TRIPOS>MOLECULE
*****
 32 32 0 0 0
SMALL
GASTEIGER

@<TRIPOS>ATOM
      1 C           1.0854   -0.0046    0.0518 C.3     1  UNL1       -0.0653
      2 C           2.6054   -0.0046    0.0518 C.3     1  UNL1       -0.0559
      3 C           3.1120   -0.8838   -1.0798 C.3     1  UNL1       -0.0533
      4 C           4.6320   -0.8838   -1.0798 C.3     1  UNL1       -0.0530
      5 C           5.1387   -1.7631   -2.2114 C.3     1  UNL1       -0.0514
      6 C           6.6587   -1.7631   -2.2114 C.3     1  UNL1       -0.0333
      7 C           7.1654   -2.6424   -3.3430 C.3     1  UNL1        0.0432
      8 N           8.6354   -2.6424   -3.3430 N.ar    1  UNL1       -0.2515
      9 C           9.3318   -3.3825   -4.2955 C.ar    1  UNL1        0.0484
     10 C          10.7720   -3.3825   -4.2955 C.ar    1  UNL1        0.0798
     11 C          11.5320   -2.5748   -3.2561 C.3     1  UNL1       -0.0191
     12 N          11.4684   -4.1225   -5.2480 N.ar    1  UNL1       -0.1348
     13 N           9.3081   -1.9275   -2.4229 N.ar    1  UNL1       -0.0655
     14 H           0.7287    0.6144    0.8485 H       1  UNL1        0.0230
     15 H           0.7287   -1.0039    0.1896 H       1  UNL1        0.0230
     16 H           0.7287    0.3758   -0.8825 H       1  UNL1        0.0230
     17 H           2.9621   -0.3850    0.9862 H       1  UNL1        0.0263
     18 H           2.9621    0.9948   -0.0859 H       1  UNL1        0.0263
     19 H           2.7554   -0.5034   -2.0141 H       1  UNL1        0.0265
     20 H           2.7554   -1.8832   -0.9421 H       1  UNL1        0.0265
     21 H           4.9887   -1.2642   -0.1454 H       1  UNL1        0.0265
     22 H           4.9887    0.1155   -1.2175 H       1  UNL1        0.0265
     23 H           4.7820   -1.3827   -3.1457 H       1  UNL1        0.0266
     24 H           4.7820   -2.7625   -2.0737 H       1  UNL1        0.0266
     25 H           7.0154   -2.1435   -1.2771 H       1  UNL1        0.0283
     26 H           7.0154   -0.7637   -2.3491 H       1  UNL1        0.0283
     27 H           6.8087   -2.2620   -4.2774 H       1  UNL1        0.0509
     28 H           6.8087   -3.6417   -3.2053 H       1  UNL1        0.0509
     29 H           8.8158   -3.9308   -5.0013 H       1  UNL1        0.0845
     30 H          10.8367   -2.0758   -2.6139 H       1  UNL1        0.0294
     31 H          12.1471   -1.8501   -3.7473 H       1  UNL1        0.0294
     32 H          12.1471   -3.2299   -2.6753 H       1  UNL1        0.0294
@<TRIPOS>BOND
     1     1     2    1
     2     2     3    1
     3     3     4    1
     4     4     5    1
     5     5     6    1
     6     6     7    1
     7     7     8    1
     8     8     9   ar
     9     9    10   ar
    10    10    11    1
    11    10    12   ar
    12    12    13   ar
    13     8    13   ar
    14     1    14    1
    15     1    15    1
    16     1    16    1
    17     2    17    1
    18     2    18    1
    19     3    19    1
    20     3    20    1
    21     4    21    1
    22     4    22    1
    23     5    23    1
    24     5    24    1
    25     6    25    1
    26     6    26    1
    27     7    27    1
    28     7    28    1
    29     9    29    1
    30    11    30    1
    31    11    31    1
    32    11    32    1
