@<TRIPOS>MOLECULE
*****
 40 40 0 0 0
SMALL
GASTEIGER

@<TRIPOS>ATOM
      1 C           1.0763   -0.0462   -0.0451 C.3     1  UNL1       -0.0632
      2 C           2.5963   -0.0462   -0.0451 C.3     1  UNL1       -0.0323
      3 C           3.1030    1.2366   -0.6839 C.3     1  UNL1        0.0474
      4 O           4.5230    1.2366   -0.6839 O.3     1  UNL1       -0.3798
      5 C           4.9963    2.4351   -1.2806 C.3     1  UNL1        0.0477
      6 C           6.5163    2.4351   -1.2806 C.3     1  UNL1       -0.0278
      7 C           7.0230    3.7179   -1.9194 C.3     1  UNL1       -0.0312
      8 C           8.5430    3.7179   -1.9194 C.3     1  UNL1        0.0432
      9 N           9.0330    4.9586   -2.5371 N.ar    1  UNL1       -0.2515
     10 C          10.4024    5.1864   -2.6506 C.ar    1  UNL1        0.0486
     11 C          10.8824    6.4019   -3.2558 C.ar    1  UNL1        0.0829
     12 C           9.8947    7.4361   -3.7707 C.3     1  UNL1       -0.0051
     13 C           8.4762    6.9472   -3.5273 C.3     1  UNL1       -0.0242
     14 C           7.4884    7.9814   -4.0423 C.3     1  UNL1        0.0446
     15 O           6.1633    7.5247   -3.8148 O.3     1  UNL1       -0.3950
     16 N          12.2518    6.6297   -3.3692 N.ar    1  UNL1       -0.1345
     17 N           8.1587    5.8740   -2.9929 N.ar    1  UNL1       -0.0655
     18 H           0.7197   -0.9493    0.4045 H       1  UNL1        0.0230
     19 H           0.7197    0.0159   -1.0520 H       1  UNL1        0.0230
     20 H           0.7197    0.7947    0.5121 H       1  UNL1        0.0230
     21 H           2.9530   -0.8871   -0.6024 H       1  UNL1        0.0285
     22 H           2.9530   -0.1083    0.9618 H       1  UNL1        0.0285
     23 H           2.7463    2.0776   -0.1267 H       1  UNL1        0.0560
     24 H           2.7463    1.2988   -1.6908 H       1  UNL1        0.0560
     25 H           4.6397    3.2760   -0.7234 H       1  UNL1        0.0560
     26 H           4.6397    2.4972   -2.2875 H       1  UNL1        0.0560
     27 H           6.8730    1.5942   -1.8379 H       1  UNL1        0.0288
     28 H           6.8730    2.3730   -0.2737 H       1  UNL1        0.0288
     29 H           6.6663    4.5589   -1.3621 H       1  UNL1        0.0284
     30 H           6.6663    3.7800   -2.9263 H       1  UNL1        0.0284
     31 H           8.8997    2.8770   -2.4766 H       1  UNL1        0.0509
     32 H           8.8997    3.6558   -0.9125 H       1  UNL1        0.0509
     33 H          11.0730    4.4842   -2.3009 H       1  UNL1        0.0845
     34 H          10.0463    7.5828   -4.8197 H       1  UNL1        0.0330
     35 H          10.0463    8.3616   -3.2556 H       1  UNL1        0.0330
     36 H           8.3246    6.8005   -2.4783 H       1  UNL1        0.0291
     37 H           8.3246    6.0217   -4.0424 H       1  UNL1        0.0291
     38 H           7.6400    8.1281   -5.0913 H       1  UNL1        0.0557
     39 H           7.6400    8.9069   -3.5271 H       1  UNL1        0.0557
     40 H           6.0258    6.6857   -4.2818 H       1  UNL1        0.2094
@<TRIPOS>BOND
     1     1     2    1
     2     2     3    1
     3     3     4    1
     4     4     5    1
     5     5     6    1
     6     6     7    1
     7     7     8    1
     8     8     9    1
     9     9    10   ar
    10    10    11   ar
    11    11    12    1
    12    12    13    1
    13    13    14    1
    14    14    15    1
    15    11    16   ar
    16    16    17   ar
    17     9    17   ar
    18     1    18    1
    19     1    19    1
    20     1    20    1
    21     2    21    1
    22     2    22    1
    23     3    23    1
    24     3    24    1
    25     5    25    1
    26     5    26    1
    27     6    27    1
    28     6    28    1
    29     7    29    1
    30     7    30    1
    31     8    31    1
    32     8    32    1
    33    10    33    1
    34    12    34    1
    35    12    35    1
    36    13    36    1
    37    13    37    1
    38    14    38    1
    39    14    39    1
    40    15    40    1
