@<TRIPOS>MOLECULE
*****
 18 17 0 0 0
SMALL
GASTEIGER

@<TRIPOS>ATOM
      1 C           0.9329    0.0730   -0.0131 C.3     1  UNL1       -0.0495
      2 C           2.4529    0.0730   -0.0131 C.3     1  UNL1        0.0088
      3 N           2.9429    1.1149    0.9008 N.am    1  UNL1       -0.3156
      4 C           4.3882    1.3168    1.0780 C.2     1  UNL1        0.2128
      5 O           5.2140    0.5906    0.4410 O.2     1  UNL1       -0.2758
      6 C           4.8948    2.3942    2.0229 C.3     1  UNL1        0.0211
      7 C           6.4148    2.3942    2.0229 C.3     1  UNL1       -0.0570
      8 H           0.5763   -0.6854   -0.6783 H       1  UNL1        0.0245
      9 H           0.5762    1.0283   -0.3373 H       1  UNL1        0.0245
     10 H           0.5762   -0.1239    0.9763 H       1  UNL1        0.0245
     11 H           2.8096    0.2699   -1.0025 H       1  UNL1        0.0459
     12 H           2.8096   -0.8823    0.3111 H       1  UNL1        0.0459
     13 H           2.3031    1.6775    1.3943 H       1  UNL1        0.1487
     14 H           4.5382    2.1973    3.0123 H       1  UNL1        0.0356
     15 H           4.5382    3.3495    1.6988 H       1  UNL1        0.0356
     16 H           6.7715    1.4389    2.3471 H       1  UNL1        0.0234
     17 H           6.7715    3.1526    2.6882 H       1  UNL1        0.0234
     18 H           6.7715    2.5911    1.0335 H       1  UNL1        0.0234
@<TRIPOS>BOND
     1     1     2    1
     2     2     3    1
     3     3     4   am
     4     4     5    2
     5     4     6    1
     6     6     7    1
     7     1     8    1
     8     1     9    1
     9     1    10    1
    10     2    11    1
    11     2    12    1
    12     3    13    1
    13     6    14    1
    14     6    15    1
    15     7    16    1
    16     7    17    1
    17     7    18    1
