@<TRIPOS>MOLECULE
*****
 23 22 0 0 0
SMALL
GASTEIGER

@<TRIPOS>ATOM
      1 C           1.0612    0.0432    0.0663 C.3     1  UNL1       -0.0653
      2 C           2.5812    0.0432    0.0663 C.3     1  UNL1       -0.0559
      3 C           3.0878    0.4979   -1.2927 C.3     1  UNL1       -0.0533
      4 C           4.6078    0.4979   -1.2927 C.3     1  UNL1       -0.0531
      5 C           5.1145    0.9527   -2.6517 C.3     1  UNL1       -0.0533
      6 C           6.6345    0.9527   -2.6517 C.3     1  UNL1       -0.0559
      7 C           7.1411    1.4074   -4.0108 C.3     1  UNL1       -0.0653
      8 H           0.7045   -0.2769    1.0230 H       1  UNL1        0.0230
      9 H           0.7045   -0.6253   -0.6893 H       1  UNL1        0.0230
     10 H           0.7045    1.0318   -0.1348 H       1  UNL1        0.0230
     11 H           2.9378   -0.9454    0.2674 H       1  UNL1        0.0263
     12 H           2.9378    0.7116    0.8218 H       1  UNL1        0.0263
     13 H           2.7312    1.4865   -1.4938 H       1  UNL1        0.0265
     14 H           2.7312   -0.1705   -2.0483 H       1  UNL1        0.0265
     15 H           4.9645   -0.4906   -1.0916 H       1  UNL1        0.0265
     16 H           4.9645    1.1664   -0.5372 H       1  UNL1        0.0265
     17 H           4.7578    1.9412   -2.8529 H       1  UNL1        0.0265
     18 H           4.7578    0.2842   -3.4073 H       1  UNL1        0.0265
     19 H           6.9911   -0.0359   -2.4506 H       1  UNL1        0.0263
     20 H           6.9911    1.6211   -1.8962 H       1  UNL1        0.0263
     21 H           6.7845    0.7389   -4.7663 H       1  UNL1        0.0230
     22 H           8.2111    1.4074   -4.0108 H       1  UNL1        0.0230
     23 H           6.7845    2.3959   -4.2119 H       1  UNL1        0.0230
@<TRIPOS>BOND
     1     1     2    1
     2     2     3    1
     3     3     4    1
     4     4     5    1
     5     5     6    1
     6     6     7    1
     7     1     8    1
     8     1     9    1
     9     1    10    1
    10     2    11    1
    11     2    12    1
    12     3    13    1
    13     3    14    1
    14     4    15    1
    15     4    16    1
    16     5    17    1
    17     5    18    1
    18     6    19    1
    19     6    20    1
    20     7    21    1
    21     7    22    1
    22     7    23    1
