@<TRIPOS>MOLECULE
*****
 24 24 0 0 0
SMALL
GASTEIGER

@<TRIPOS>ATOM
      1 N           0.9303   -0.0575   -0.0428 N.3     1  UNL1       -0.3288
      2 C           2.4003   -0.0575   -0.0428 C.3     1  UNL1        0.0059
      3 C           2.9069    0.0801    1.3837 C.3     1  UNL1        0.0113
      4 N           4.3769    0.0801    1.3837 N.3     1  UNL1       -0.2987
      5 C           4.8669    0.2133    2.7632 C.3     1  UNL1        0.0115
      6 C           6.3869    0.2133    2.7632 C.3     1  UNL1        0.0087
      7 N           6.8769    0.3464    4.1427 N.3     1  UNL1       -0.3136
      8 C           8.3469    0.3464    4.1427 C.3     1  UNL1        0.0087
      9 C           4.8669    1.2083    0.5786 C.3     1  UNL1        0.0115
     10 H           0.5903   -0.1499   -1.0000 H       1  UNL1        0.1183
     11 H           0.5903    0.8177    0.3558 H       1  UNL1        0.1183
     12 H           2.7569    0.7637   -0.6288 H       1  UNL1        0.0434
     13 H           2.7569   -0.9756   -0.4609 H       1  UNL1        0.0434
     14 H           2.5503   -0.7410    1.9696 H       1  UNL1        0.0439
     15 H           2.5503    0.9982    1.8018 H       1  UNL1        0.0439
     16 H           4.5102   -0.6079    3.3492 H       1  UNL1        0.0439
     17 H           4.5102    1.1313    3.1813 H       1  UNL1        0.0439
     18 H           6.7436    1.0344    2.1772 H       1  UNL1        0.0437
     19 H           6.7436   -0.7048    2.3450 H       1  UNL1        0.0437
     20 H           6.5369   -0.4364    4.7013 H       1  UNL1        0.1220
     21 H           8.9145   -0.5601    4.1744 H       1  UNL1        0.0437
     22 H           9.1720    0.8285    4.6240 H       1  UNL1        0.0437
     23 H           5.1386    1.0111   -0.4374 H       1  UNL1        0.0439
     24 H           4.3704    2.1233    0.3314 H       1  UNL1        0.0439
@<TRIPOS>BOND
     1     1     2    1
     2     2     3    1
     3     3     4    1
     4     4     5    1
     5     5     6    1
     6     6     7    1
     7     7     8    1
     8     8     9    1
     9     4     9    1
    10     1    10    1
    11     1    11    1
    12     2    12    1
    13     2    13    1
    14     3    14    1
    15     3    15    1
    16     5    16    1
    17     5    17    1
    18     6    18    1
    19     6    19    1
    20     7    20    1
    21     8    21    1
    22     8    22    1
    23     9    23    1
    24     9    24    1
