@<TRIPOS>MOLECULE
*****
 30 30 0 0 0
SMALL
GASTEIGER

@<TRIPOS>ATOM
      1 N           0.9875   -0.0992    0.0009 N.3     1  UNL1       -0.3279
      2 C           2.4575   -0.0992    0.0009 C.3     1  UNL1        0.0166
      3 C           2.9642    1.0333   -0.8772 C.3     1  UNL1        0.0600
      4 O           4.3842    1.0333   -0.8772 O.3     1  UNL1       -0.3763
      5 C           4.8575    2.0913   -1.6976 C.3     1  UNL1        0.0711
      6 C           6.3775    2.0913   -1.6976 C.3     1  UNL1        0.0711
      7 O           6.8508    3.1492   -2.5180 O.3     1  UNL1       -0.3757
      8 C           8.2708    3.1492   -2.5180 C.3     1  UNL1        0.0673
      9 C           8.7775    4.2817   -3.3962 C.3     1  UNL1        0.0665
     10 N          10.2475    4.2817   -3.3962 N.ar    1  UNL1       -0.2495
     11 C          10.9439    5.2349   -4.1353 C.ar    1  UNL1        0.0455
     12 C          12.3841    5.2349   -4.1353 C.ar    1  UNL1        0.0693
     13 N          13.0805    6.1882   -4.8745 N.ar    1  UNL1       -0.1380
     14 N          10.9202    3.3609   -2.6822 N.ar    1  UNL1       -0.0657
     15 H           0.6475   -0.8592    0.5902 H       1  UNL1        0.1183
     16 H           0.6475   -0.2296   -0.9519 H       1  UNL1        0.1183
     17 H           2.8142   -1.0332   -0.3804 H       1  UNL1        0.0444
     18 H           2.8142    0.0375    1.0004 H       1  UNL1        0.0444
     19 H           2.6075    1.9672   -0.4959 H       1  UNL1        0.0572
     20 H           2.6075    0.8965   -1.8767 H       1  UNL1        0.0572
     21 H           4.5008    3.0252   -1.3163 H       1  UNL1        0.0583
     22 H           4.5008    1.9545   -2.6971 H       1  UNL1        0.0583
     23 H           6.7342    1.1573   -2.0789 H       1  UNL1        0.0583
     24 H           6.7342    2.2280   -0.6981 H       1  UNL1        0.0583
     25 H           8.6275    2.2153   -2.8993 H       1  UNL1        0.0578
     26 H           8.6275    3.2860   -1.5185 H       1  UNL1        0.0578
     27 H           8.4208    5.2157   -3.0149 H       1  UNL1        0.0532
     28 H           8.4208    4.1450   -4.3957 H       1  UNL1        0.0532
     29 H          10.4279    5.9412   -4.6830 H       1  UNL1        0.0842
     30 H          12.9001    4.5287   -3.5877 H       1  UNL1        0.0864
@<TRIPOS>BOND
     1     1     2    1
     2     2     3    1
     3     3     4    1
     4     4     5    1
     5     5     6    1
     6     6     7    1
     7     7     8    1
     8     8     9    1
     9     9    10    1
    10    10    11   ar
    11    11    12   ar
    12    12    13   ar
    13    13    14   ar
    14    10    14   ar
    15     1    15    1
    16     1    16    1
    17     2    17    1
    18     2    18    1
    19     3    19    1
    20     3    20    1
    21     5    21    1
    22     5    22    1
    23     6    23    1
    24     6    24    1
    25     8    25    1
    26     8    26    1
    27     9    27    1
    28     9    28    1
    29    11    29    1
    30    12    30    1
