@<TRIPOS>MOLECULE
*****
 21 20 0 0 0
SMALL
GASTEIGER

@<TRIPOS>ATOM
      1 C           0.9546   -0.0669    0.0588 C.3     1  UNL1       -0.0639
      2 C           2.4746   -0.0669    0.0588 C.3     1  UNL1       -0.0402
      3 C           2.9812    1.0594    0.9449 C.3     1  UNL1        0.0113
      4 N           4.4512    1.0594    0.9449 N.am    1  UNL1       -0.3153
      5 C           5.1862    2.0599    1.7321 C.2     1  UNL1        0.2128
      6 O           4.5508    2.9249    2.4126 O.2     1  UNL1       -0.2758
      7 C           6.7062    2.0599    1.7321 C.3     1  UNL1        0.0211
      8 C           7.2129    3.1862    2.6182 C.3     1  UNL1       -0.0570
      9 H           0.5979   -0.8598   -0.5650 H       1  UNL1        0.0230
     10 H           0.5979    0.8697   -0.3159 H       1  UNL1        0.0230
     11 H           0.5979   -0.2107    1.0573 H       1  UNL1        0.0230
     12 H           2.8312    0.0769   -0.9397 H       1  UNL1        0.0278
     13 H           2.8312   -1.0035    0.4335 H       1  UNL1        0.0278
     14 H           2.6246    0.9156    1.9434 H       1  UNL1        0.0462
     15 H           2.6246    1.9960    0.5702 H       1  UNL1        0.0462
     16 H           4.9435    0.3893    0.4177 H       1  UNL1        0.1487
     17 H           7.0629    2.2037    0.7336 H       1  UNL1        0.0356
     18 H           7.0629    1.1233    2.1068 H       1  UNL1        0.0356
     19 H           6.8562    4.1228    2.2434 H       1  UNL1        0.0234
     20 H           8.2829    3.1862    2.6182 H       1  UNL1        0.0234
     21 H           6.8562    3.0424    3.6167 H       1  UNL1        0.0234
@<TRIPOS>BOND
     1     1     2    1
     2     2     3    1
     3     3     4    1
     4     4     5   am
     5     5     6    2
     6     5     7    1
     7     7     8    1
     8     1     9    1
     9     1    10    1
    10     1    11    1
    11     2    12    1
    12     2    13    1
    13     3    14    1
    14     3    15    1
    15     4    16    1
    16     7    17    1
    17     7    18    1
    18     8    19    1
    19     8    20    1
    20     8    21    1
