@<TRIPOS>MOLECULE
*****
 23 22 0 0 0
SMALL
GASTEIGER

@<TRIPOS>ATOM
      1 C           1.0688    0.0346   -0.0638 C.3     1  UNL1       -0.0416
      2 C           2.5888    0.0346   -0.0638 C.3     1  UNL1        0.0449
      3 O           3.0621    0.9106    0.9487 O.3     1  UNL1       -0.3778
      4 C           4.4821    0.9106    0.9487 C.3     1  UNL1        0.0710
      5 C           4.9888    1.8482    2.0325 C.3     1  UNL1        0.0711
      6 O           6.4088    1.8482    2.0325 O.3     1  UNL1       -0.3752
      7 C           6.8821    2.7241    3.0450 C.3     1  UNL1        0.0708
      8 C           8.4021    2.7241    3.0450 C.3     1  UNL1        0.0676
      9 O           8.8754    3.6000    4.0574 O.3     1  UNL1       -0.3927
     10 H           0.7121   -0.6254   -0.8267 H       1  UNL1        0.0252
     11 H           0.7121    1.0254   -0.2539 H       1  UNL1        0.0252
     12 H           0.7121   -0.2961    0.8893 H       1  UNL1        0.0252
     13 H           2.9454    0.3653   -1.0169 H       1  UNL1        0.0557
     14 H           2.9454   -0.9561    0.1263 H       1  UNL1        0.0557
     15 H           4.8388    1.2413   -0.0044 H       1  UNL1        0.0583
     16 H           4.8388   -0.0802    1.1388 H       1  UNL1        0.0583
     17 H           4.6321    1.5175    2.9855 H       1  UNL1        0.0583
     18 H           4.6321    2.8389    1.8423 H       1  UNL1        0.0583
     19 H           6.5254    2.3934    3.9980 H       1  UNL1        0.0583
     20 H           6.5254    3.7148    2.8548 H       1  UNL1        0.0583
     21 H           8.7588    3.0548    2.0919 H       1  UNL1        0.0580
     22 H           8.7588    1.7334    3.2351 H       1  UNL1        0.0580
     23 H           8.5521    4.4981    3.8851 H       1  UNL1        0.2095
@<TRIPOS>BOND
     1     1     2    1
     2     2     3    1
     3     3     4    1
     4     4     5    1
     5     5     6    1
     6     6     7    1
     7     7     8    1
     8     8     9    1
     9     1    10    1
    10     1    11    1
    11     1    12    1
    12     2    13    1
    13     2    14    1
    14     4    15    1
    15     4    16    1
    16     5    17    1
    17     5    18    1
    18     7    19    1
    19     7    20    1
    20     8    21    1
    21     8    22    1
    22     9    23    1
