@<TRIPOS>MOLECULE
*****
 31 32 0 0 0
SMALL
GASTEIGER

@<TRIPOS>ATOM
      1 C           0.9378   -0.0659   -0.0423 C.3     1  UNL1       -0.0027
      2 C           2.4578   -0.0659   -0.0423 C.3     1  UNL1       -0.0247
      3 C           2.9645   -0.1330   -1.4738 C.3     1  UNL1        0.0128
      4 N           2.4745    1.0335   -2.2223 N.3     1  UNL1       -0.2969
      5 C           1.0045    1.0334   -2.2223 C.3     1  UNL1        0.0118
      6 C           0.4978    2.2396   -2.9961 C.3     1  UNL1        0.0087
      7 N          -0.9722    2.2396   -2.9961 N.3     1  UNL1       -0.3136
      8 C          -1.4622    3.4060   -3.7446 C.3     1  UNL1        0.0087
      9 C           2.9645    0.9685   -3.6067 C.3     1  UNL1        0.0118
     10 C           4.4845   -0.1330   -1.4738 C.3     1  UNL1       -0.0247
     11 C           4.9911   -0.2002   -2.9053 C.3     1  UNL1       -0.0027
     12 N           0.4478   -0.0009    1.3421 N.3     1  UNL1       -0.3159
     13 H           0.5811   -0.9622   -0.5052 H       1  UNL1        0.0424
     14 H           0.5811    0.7832   -0.5871 H       1  UNL1        0.0424
     15 H           2.8145   -0.9149    0.5025 H       1  UNL1        0.0293
     16 H           2.8145    0.8305    0.4206 H       1  UNL1        0.0293
     17 H           2.6078   -1.0293   -1.9367 H       1  UNL1        0.0463
     18 H           0.6478    1.0807   -1.2146 H       1  UNL1        0.0439
     19 H           0.6478    0.1371   -2.6852 H       1  UNL1        0.0439
     20 H           0.8545    2.1923   -4.0038 H       1  UNL1        0.0437
     21 H           0.8545    3.1359   -2.5332 H       1  UNL1        0.0437
     22 H          -1.3122    2.2846   -2.0355 H       1  UNL1        0.1220
     23 H          -1.5990    4.3609   -3.2816 H       1  UNL1        0.0437
     24 H          -2.2326    3.6791   -4.4351 H       1  UNL1        0.0437
     25 H           3.8452    1.5264   -3.8474 H       1  UNL1        0.0439
     26 H           3.2791    0.1142   -4.1689 H       1  UNL1        0.0439
     27 H           4.8411   -0.9821   -0.9290 H       1  UNL1        0.0293
     28 H           4.8411    0.7633   -1.0109 H       1  UNL1        0.0293
     29 H           5.3292   -1.0971   -3.3808 H       1  UNL1        0.0424
     30 H           5.4938    0.3123   -3.6988 H       1  UNL1        0.0424
     31 H           0.1255    0.8541    1.7954 H       1  UNL1        0.1219
@<TRIPOS>BOND
     1     1     2    1
     2     2     3    1
     3     3     4    1
     4     4     5    1
     5     5     6    1
     6     6     7    1
     7     7     8    1
     8     8     9    1
     9     4     9    1
    10     3    10    1
    11    10    11    1
    12    11    12    1
    13     1    12    1
    14     1    13    1
    15     1    14    1
    16     2    15    1
    17     2    16    1
    18     3    17    1
    19     5    18    1
    20     5    19    1
    21     6    20    1
    22     6    21    1
    23     7    22    1
    24     8    23    1
    25     8    24    1
    26     9    25    1
    27     9    26    1
    28    10    27    1
    29    10    28    1
    30    11    29    1
    31    11    30    1
    32    12    31    1
