@<TRIPOS>MOLECULE
*****
 59 58 0 0 0
SMALL
GASTEIGER

@<TRIPOS>ATOM
      1 C           0.9223    0.0609    0.0162 C.3     1  UNL1       -0.0416
      2 C           2.4423    0.0609    0.0162 C.3     1  UNL1        0.0449
      3 O           2.9157    0.2257    1.3448 O.3     1  UNL1       -0.3778
      4 C           4.3357    0.2257    1.3448 C.3     1  UNL1        0.0710
      5 C           4.8423    0.4021    2.7670 C.3     1  UNL1        0.0711
      6 O           6.2623    0.4021    2.7670 O.3     1  UNL1       -0.3752
      7 C           6.7356    0.5669    4.0956 C.3     1  UNL1        0.0711
      8 C           8.2556    0.5669    4.0956 C.3     1  UNL1        0.0711
      9 O           8.7290    0.7318    5.4242 O.3     1  UNL1       -0.3752
     10 C          10.1490    0.7318    5.4242 C.3     1  UNL1        0.0711
     11 C          10.6556    0.9082    6.8463 C.3     1  UNL1        0.0711
     12 O          12.0756    0.9082    6.8463 O.3     1  UNL1       -0.3752
     13 C          12.5490    1.0730    8.1749 C.3     1  UNL1        0.0711
     14 C          14.0690    1.0730    8.1749 C.3     1  UNL1        0.0711
     15 O          14.5423    1.2378    9.5035 O.3     1  UNL1       -0.3752
     16 C          15.9623    1.2378    9.5035 C.3     1  UNL1        0.0711
     17 C          16.4690    1.4143   10.9257 C.3     1  UNL1        0.0711
     18 O          17.8890    1.4143   10.9257 O.3     1  UNL1       -0.3752
     19 C          18.3623    1.5791   12.2543 C.3     1  UNL1        0.0711
     20 C          19.8823    1.5791   12.2543 C.3     1  UNL1        0.0711
     21 O          20.3556    1.7439   13.5829 O.3     1  UNL1       -0.3763
     22 C          21.7756    1.7439   13.5829 C.3     1  UNL1        0.0600
     23 C          22.2823    1.9203   15.0051 C.3     1  UNL1        0.0166
     24 N          23.7523    1.9203   15.0051 N.3     1  UNL1       -0.3279
     25 H           0.5657   -0.0633   -0.9850 H       1  UNL1        0.0252
     26 H           0.5657    0.9900    0.4092 H       1  UNL1        0.0252
     27 H           0.5657   -0.7440    0.6243 H       1  UNL1        0.0252
     28 H           2.7990    0.8658   -0.5919 H       1  UNL1        0.0557
     29 H           2.7990   -0.8682   -0.3768 H       1  UNL1        0.0557
     30 H           4.6923    1.0306    0.7367 H       1  UNL1        0.0583
     31 H           4.6923   -0.7034    0.9518 H       1  UNL1        0.0583
     32 H           4.4857   -0.4028    3.3751 H       1  UNL1        0.0583
     33 H           4.4856    1.3312    3.1600 H       1  UNL1        0.0583
     34 H           6.3790   -0.2380    4.7037 H       1  UNL1        0.0583
     35 H           6.3790    1.4960    4.4886 H       1  UNL1        0.0583
     36 H           8.6123    1.3719    3.4874 H       1  UNL1        0.0583
     37 H           8.6123   -0.3622    3.7025 H       1  UNL1        0.0583
     38 H          10.5056    1.5367    4.8160 H       1  UNL1        0.0583
     39 H          10.5056   -0.1973    5.0312 H       1  UNL1        0.0583
     40 H          10.2990    0.1033    7.4545 H       1  UNL1        0.0583
     41 H          10.2990    1.8373    7.2393 H       1  UNL1        0.0583
     42 H          12.1923    0.2681    8.7831 H       1  UNL1        0.0583
     43 H          12.1923    2.0021    8.5680 H       1  UNL1        0.0583
     44 H          14.4256    1.8779    7.5668 H       1  UNL1        0.0583
     45 H          14.4256    0.1439    7.7819 H       1  UNL1        0.0583
     46 H          16.3190    2.0427    8.8954 H       1  UNL1        0.0583
     47 H          16.3190    0.3087    9.1105 H       1  UNL1        0.0583
     48 H          16.1123    0.6094   11.5338 H       1  UNL1        0.0583
     49 H          16.1123    2.3434   11.3187 H       1  UNL1        0.0583
     50 H          18.0056    0.7742   12.8624 H       1  UNL1        0.0583
     51 H          18.0056    2.5082   12.6473 H       1  UNL1        0.0583
     52 H          20.2389    2.3840   11.6462 H       1  UNL1        0.0583
     53 H          20.2390    0.6500   11.8613 H       1  UNL1        0.0583
     54 H          22.1323    2.5488   12.9748 H       1  UNL1        0.0572
     55 H          22.1323    0.8148   13.1899 H       1  UNL1        0.0572
     56 H          21.9256    1.1154   15.6132 H       1  UNL1        0.0444
     57 H          21.9256    2.8494   15.3981 H       1  UNL1        0.0444
     58 H          24.0923    1.0347   14.6305 H       1  UNL1        0.1183
     59 H          24.0923    2.0387   15.9594 H       1  UNL1        0.1183
@<TRIPOS>BOND
     1     1     2    1
     2     2     3    1
     3     3     4    1
     4     4     5    1
     5     5     6    1
     6     6     7    1
     7     7     8    1
     8     8     9    1
     9     9    10    1
    10    10    11    1
    11    11    12    1
    12    12    13    1
    13    13    14    1
    14    14    15    1
    15    15    16    1
    16    16    17    1
    17    17    18    1
    18    18    19    1
    19    19    20    1
    20    20    21    1
    21    21    22    1
    22    22    23    1
    23    23    24    1
    24     1    25    1
    25     1    26    1
    26     1    27    1
    27     2    28    1
    28     2    29    1
    29     4    30    1
    30     4    31    1
    31     5    32    1
    32     5    33    1
    33     7    34    1
    34     7    35    1
    35     8    36    1
    36     8    37    1
    37    10    38    1
    38    10    39    1
    39    11    40    1
    40    11    41    1
    41    13    42    1
    42    13    43    1
    43    14    44    1
    44    14    45    1
    45    16    46    1
    46    16    47    1
    47    17    48    1
    48    17    49    1
    49    19    50    1
    50    19    51    1
    51    20    52    1
    52    20    53    1
    53    22    54    1
    54    22    55    1
    55    23    56    1
    56    23    57    1
    57    24    58    1
    58    24    59    1
