@<TRIPOS>MOLECULE
*****
 27 27 0 0 0
SMALL
GASTEIGER

@<TRIPOS>ATOM
      1 O           1.0425    0.0752    0.0505 O.2     1  UNL1       -0.2729
      2 C           2.3134    0.0752    0.0505 C.2     1  UNL1        0.2430
      3 C           3.0734    1.1131    0.8601 C.3     1  UNL1        0.1241
      4 O           2.1506    1.9641    1.5239 O.3     1  UNL1       -0.3683
      5 C           2.8606    2.9337    2.2803 C.3     1  UNL1        0.0714
      6 C           1.8729    3.8447    2.9909 C.3     1  UNL1        0.0676
      7 O           2.5829    4.8143    3.7473 O.3     1  UNL1       -0.3927
      8 N           3.0484   -0.9286   -0.7326 N.am    1  UNL1       -0.2836
      9 C           4.5184   -0.9286   -0.7326 C.ar    1  UNL1        0.0335
     10 C           5.2385   -1.9120   -1.4997 C.ar    1  UNL1       -0.0405
     11 C           6.6787   -1.9120   -1.4997 C.ar    1  UNL1       -0.0600
     12 C           7.3988   -2.8955   -2.2668 C.ar    1  UNL1       -0.0616
     13 C           8.8390   -2.8955   -2.2668 C.ar    1  UNL1       -0.0600
     14 C           5.2385    0.0548    0.0346 C.ar    1  UNL1       -0.0405
     15 H           3.6885    1.6951    0.2061 H       1  UNL1        0.0657
     16 H           3.6885    0.6204    1.5838 H       1  UNL1        0.0657
     17 H           3.4758    3.5158    1.6263 H       1  UNL1        0.0583
     18 H           3.4758    2.4411    3.0040 H       1  UNL1        0.0583
     19 H           1.2577    3.2626    3.6449 H       1  UNL1        0.0580
     20 H           1.2577    4.3373    2.2672 H       1  UNL1        0.0580
     21 H           3.1405    4.3677    4.4034 H       1  UNL1        0.2095
     22 H           2.5561   -1.6009   -1.2570 H       1  UNL1        0.1549
     23 H           4.7225   -2.6167   -2.0494 H       1  UNL1        0.0636
     24 H           7.1947   -1.2073   -0.9500 H       1  UNL1        0.0618
     25 H           6.8828   -3.6002   -2.8165 H       1  UNL1        0.0618
     26 H           9.7886   -3.2141   -2.5154 H       1  UNL1        0.0618
     27 H           5.1136    0.8625    0.6647 H       1  UNL1        0.0636
@<TRIPOS>BOND
     1     1     2    2
     2     2     3    1
     3     3     4    1
     4     4     5    1
     5     5     6    1
     6     6     7    1
     7     2     8   am
     8     8     9    1
     9     9    10   ar
    10    10    11   ar
    11    11    12   ar
    12    12    13   ar
    13    13    14   ar
    14     9    14   ar
    15     3    15    1
    16     3    16    1
    17     5    17    1
    18     5    18    1
    19     6    19    1
    20     6    20    1
    21     7    21    1
    22     8    22    1
    23    10    23    1
    24    11    24    1
    25    12    25    1
    26    13    26    1
    27    14    27    1
