@<TRIPOS>MOLECULE
*****
 28 27 0 0 0
SMALL
GASTEIGER

@<TRIPOS>ATOM
      1 C           1.0806    0.0579    0.0126 C.3     1  UNL1       -0.0653
      2 C           2.6006    0.0579    0.0126 C.3     1  UNL1       -0.0558
      3 C           3.1072   -0.5905   -1.2655 C.3     1  UNL1       -0.0512
      4 C           4.6272   -0.5905   -1.2655 C.3     1  UNL1       -0.0295
      5 C           5.1339   -1.2388   -2.5435 C.3     1  UNL1        0.0477
      6 O           6.5539   -1.2388   -2.5435 O.3     1  UNL1       -0.3797
      7 C           7.0272   -1.8445   -3.7374 C.3     1  UNL1        0.0497
      8 C           8.5472   -1.8445   -3.7374 C.3     1  UNL1       -0.0062
      9 C           9.0539   -2.4929   -5.0154 C.3     1  UNL1        0.0463
     10 O          10.4739   -2.4929   -5.0154 O.3     1  UNL1       -0.3949
     11 H           0.7239    0.5143    0.9122 H       1  UNL1        0.0230
     12 H           0.7239   -0.9495   -0.0420 H       1  UNL1        0.0230
     13 H           0.7239    0.6088   -0.8325 H       1  UNL1        0.0230
     14 H           2.9573   -0.4931    0.8577 H       1  UNL1        0.0263
     15 H           2.9573    1.0652    0.0671 H       1  UNL1        0.0263
     16 H           2.7506   -0.0396   -2.1105 H       1  UNL1        0.0266
     17 H           2.7506   -1.5978   -1.3200 H       1  UNL1        0.0266
     18 H           4.9839   -1.1414   -0.4204 H       1  UNL1        0.0287
     19 H           4.9839    0.4168   -1.2109 H       1  UNL1        0.0287
     20 H           4.7772   -0.6879   -3.3886 H       1  UNL1        0.0560
     21 H           4.7772   -2.2462   -2.5981 H       1  UNL1        0.0560
     22 H           6.6706   -1.2936   -4.5825 H       1  UNL1        0.0560
     23 H           6.6706   -2.8519   -3.7920 H       1  UNL1        0.0560
     24 H           8.9039   -2.3955   -2.8923 H       1  UNL1        0.0309
     25 H           8.9039   -0.8372   -3.6828 H       1  UNL1        0.0309
     26 H           8.6972   -1.9419   -5.8605 H       1  UNL1        0.0558
     27 H           8.6972   -3.5002   -5.0700 H       1  UNL1        0.0558
     28 H          10.7972   -1.5797   -4.9660 H       1  UNL1        0.2094
@<TRIPOS>BOND
     1     1     2    1
     2     2     3    1
     3     3     4    1
     4     4     5    1
     5     5     6    1
     6     6     7    1
     7     7     8    1
     8     8     9    1
     9     9    10    1
    10     1    11    1
    11     1    12    1
    12     1    13    1
    13     2    14    1
    14     2    15    1
    15     3    16    1
    16     3    17    1
    17     4    18    1
    18     4    19    1
    19     5    20    1
    20     5    21    1
    21     7    22    1
    22     7    23    1
    23     8    24    1
    24     8    25    1
    25     9    26    1
    26     9    27    1
    27    10    28    1
