@<TRIPOS>MOLECULE
*****
 12 11 0 0 0
SMALL
GASTEIGER

@<TRIPOS>ATOM
      1 C           1.0492    0.0868   -0.0069 C.3     1  UNL1       -0.0416
      2 C           2.5692    0.0868   -0.0069 C.3     1  UNL1        0.0445
      3 O           3.0425    0.2598    1.3207 O.3     1  UNL1       -0.3832
      4 C           4.4625    0.2598    1.3207 C.3     1  UNL1        0.0364
      5 H           0.6925   -0.0436   -1.0073 H       1  UNL1        0.0252
      6 H           0.6925    1.0183    0.3804 H       1  UNL1        0.0252
      7 H           0.6925   -0.7144    0.6061 H       1  UNL1        0.0252
      8 H           2.9259    0.8879   -0.6200 H       1  UNL1        0.0557
      9 H           2.9259   -0.8447   -0.3942 H       1  UNL1        0.0557
     10 H           4.8192    0.3901    2.3210 H       1  UNL1        0.0523
     11 H           4.8192    1.0609    0.7076 H       1  UNL1        0.0523
     12 H           4.8192   -0.6717    0.9334 H       1  UNL1        0.0523
@<TRIPOS>BOND
     1     1     2    1
     2     2     3    1
     3     3     4    1
     4     1     5    1
     5     1     6    1
     6     1     7    1
     7     2     8    1
     8     2     9    1
     9     4    10    1
    10     4    11    1
    11     4    12    1
