@<TRIPOS>MOLECULE
*****
 32 31 0 0 0
SMALL
GASTEIGER

@<TRIPOS>ATOM
      1 C           0.9158   -0.0395    0.0367 C.3     1  UNL1        0.0365
      2 O           2.3358   -0.0395    0.0367 O.3     1  UNL1       -0.3807
      3 C           2.8091   -0.8978   -0.9907 C.3     1  UNL1        0.0706
      4 C           4.3291   -0.8978   -0.9907 C.3     1  UNL1        0.0711
      5 O           4.8024   -1.7562   -2.0181 O.3     1  UNL1       -0.3752
      6 C           6.2224   -1.7562   -2.0181 C.3     1  UNL1        0.0711
      7 C           6.7291   -2.6750   -3.1179 C.3     1  UNL1        0.0711
      8 O           8.1491   -2.6750   -3.1179 O.3     1  UNL1       -0.3752
      9 C           8.6224   -3.5333   -4.1453 C.3     1  UNL1        0.0711
     10 C          10.1424   -3.5333   -4.1453 C.3     1  UNL1        0.0715
     11 O          10.6158   -4.3916   -5.1728 O.3     1  UNL1       -0.3703
     12 C          12.0358   -4.3916   -5.1728 C.3     1  UNL1        0.1028
     13 C          12.5424   -5.3104   -6.2726 C.2     1  UNL1        0.1458
     14 O          13.7919   -5.4593   -6.4508 O.2     1  UNL1       -0.2986
     15 H           0.5591    0.6073    0.8109 H       1  UNL1        0.0524
     16 H           0.5591   -1.0334    0.2098 H       1  UNL1        0.0524
     17 H           0.5591    0.3076   -0.9105 H       1  UNL1        0.0524
     18 H           2.4525   -0.5508   -1.9379 H       1  UNL1        0.0582
     19 H           2.4525   -1.8917   -0.8177 H       1  UNL1        0.0582
     20 H           4.6858   -1.2449   -0.0435 H       1  UNL1        0.0583
     21 H           4.6858    0.0960   -1.1637 H       1  UNL1        0.0583
     22 H           6.5791   -2.1033   -1.0709 H       1  UNL1        0.0583
     23 H           6.5791   -0.7623   -2.1912 H       1  UNL1        0.0583
     24 H           6.3724   -2.3279   -4.0651 H       1  UNL1        0.0583
     25 H           6.3724   -3.6688   -2.9449 H       1  UNL1        0.0583
     26 H           8.2658   -3.1862   -5.0926 H       1  UNL1        0.0583
     27 H           8.2658   -4.5272   -3.9723 H       1  UNL1        0.0583
     28 H          10.4991   -3.8804   -3.1981 H       1  UNL1        0.0583
     29 H          10.4991   -2.5395   -4.3184 H       1  UNL1        0.0583
     30 H          12.3924   -4.7387   -4.2256 H       1  UNL1        0.0636
     31 H          12.3924   -3.3978   -5.3458 H       1  UNL1        0.0636
     32 H          11.8718   -5.8133   -6.8745 H       1  UNL1        0.1051
@<TRIPOS>BOND
     1     1     2    1
     2     2     3    1
     3     3     4    1
     4     4     5    1
     5     5     6    1
     6     6     7    1
     7     7     8    1
     8     8     9    1
     9     9    10    1
    10    10    11    1
    11    11    12    1
    12    12    13    1
    13    13    14    2
    14     1    15    1
    15     1    16    1
    16     1    17    1
    17     3    18    1
    18     3    19    1
    19     4    20    1
    20     4    21    1
    21     6    22    1
    22     6    23    1
    23     7    24    1
    24     7    25    1
    25     9    26    1
    26     9    27    1
    27    10    28    1
    28    10    29    1
    29    12    30    1
    30    12    31    1
    31    13    32    1
