@<TRIPOS>MOLECULE
*****
 23 22 0 0 0
SMALL
GASTEIGER

@<TRIPOS>ATOM
      1 C           1.0997   -0.0071    0.0004 C.3     1  UNL1       -0.0652
      2 C           2.6197   -0.0071    0.0004 C.3     1  UNL1       -0.0545
      3 C           3.1264    1.0150   -1.0040 C.3     1  UNL1       -0.0376
      4 C           4.6464    1.0150   -1.0040 C.3     1  UNL1        0.0116
      5 N           5.1364    2.0035   -1.9755 N.am    1  UNL1       -0.3143
      6 C           6.5817    2.1951   -2.1637 C.2     1  UNL1        0.2267
      7 O           7.4075    1.5061   -1.4867 O.2     1  UNL1       -0.2744
      8 C           7.0883    3.2172   -3.1682 C.3     1  UNL1        0.0707
      9 N           8.5583    3.2172   -3.1682 N.3     1  UNL1       -0.3225
     10 H           0.7431   -0.7266    0.7075 H       1  UNL1        0.0230
     11 H           0.7431   -0.2597   -0.9762 H       1  UNL1        0.0230
     12 H           0.7431    0.9650    0.2700 H       1  UNL1        0.0230
     13 H           2.9764   -0.9792   -0.2691 H       1  UNL1        0.0263
     14 H           2.9764    0.2455    0.9771 H       1  UNL1        0.0263
     15 H           2.7697    1.9872   -0.7344 H       1  UNL1        0.0280
     16 H           2.7697    0.7624   -1.9807 H       1  UNL1        0.0280
     17 H           5.0031    0.0429   -1.2736 H       1  UNL1        0.0462
     18 H           5.0031    1.2676   -0.0274 H       1  UNL1        0.0462
     19 H           4.4966    2.5372   -2.5000 H       1  UNL1        0.1487
     20 H           6.7316    4.1894   -2.8986 H       1  UNL1        0.0518
     21 H           6.7316    2.9646   -4.1449 H       1  UNL1        0.0518
     22 H           8.8983    3.4580   -2.2372 H       1  UNL1        0.1186
     23 H           8.8983    3.9031   -3.8423 H       1  UNL1        0.1186
@<TRIPOS>BOND
     1     1     2    1
     2     2     3    1
     3     3     4    1
     4     4     5    1
     5     5     6   am
     6     6     7    2
     7     6     8    1
     8     8     9    1
     9     1    10    1
    10     1    11    1
    11     1    12    1
    12     2    13    1
    13     2    14    1
    14     3    15    1
    15     3    16    1
    16     4    17    1
    17     4    18    1
    18     5    19    1
    19     8    20    1
    20     8    21    1
    21     9    22    1
    22     9    23    1
