@<TRIPOS>MOLECULE
*****
 67 69 0 0 0
SMALL
GASTEIGER

@<TRIPOS>ATOM
      1 C           1.0933   -0.0310    0.0183 C.3     1  UNL1       -0.0652
      2 C           2.6133   -0.0310    0.0183 C.3     1  UNL1       -0.0545
      3 C           3.1199    0.6407   -1.2475 C.3     1  UNL1       -0.0373
      4 C           4.6399    0.6407   -1.2475 C.3     1  UNL1        0.0165
      5 N           5.1299    1.2904   -2.4717 N.am    1  UNL1       -0.2811
      6 C           4.1747    1.8142   -3.4587 C.3     1  UNL1        0.0412
      7 C           2.7562    1.5582   -2.9763 C.ar    1  UNL1       -0.0301
      8 C           1.6360    1.9825   -3.7759 C.ar    1  UNL1       -0.0571
      9 C           0.2920    1.7399   -3.3187 C.ar    1  UNL1       -0.0615
     10 C          -0.8282    2.1643   -4.1183 C.ar    1  UNL1       -0.0617
     11 C          -2.1722    1.9217   -3.6612 C.ar    1  UNL1       -0.0615
     12 C           2.5323    0.8913   -1.7196 C.ar    1  UNL1       -0.0571
     13 C           6.5752    1.4164   -2.7090 C.2     1  UNL1        0.3067
     14 O           7.4011    0.9635   -1.8557 O.2     1  UNL1       -0.2523
     15 N           7.0652    2.0660   -3.9332 N.am    1  UNL1       -0.2693
     16 C           8.5104    2.1920   -4.1705 C.ar    1  UNL1        0.0350
     17 C           8.9905    2.8285   -5.3699 C.ar    1  UNL1       -0.0370
     18 C          10.4064    2.9518   -5.6024 C.ar    1  UNL1       -0.0182
     19 C          10.8865    3.5884   -6.8018 C.ar    1  UNL1        0.1206
     20 O           9.9637    4.0943   -7.7552 O.3     1  UNL1       -0.4920
     21 C           8.5676    3.9727   -7.5260 C.3     1  UNL1        0.0896
     22 C           7.8076    4.5897   -8.6887 C.3     1  UNL1       -0.0170
     23 C           6.3132    4.4595   -8.4434 C.3     1  UNL1       -0.0302
     24 C           5.5532    5.0766   -9.6061 C.3     1  UNL1        0.0433
     25 N           4.1080    4.9507   -9.3689 N.ar    1  UNL1       -0.2514
     26 C           3.2029    5.4470  -10.3040 C.ar    1  UNL1        0.0499
     27 C           1.7869    5.3236  -10.0715 C.ar    1  UNL1        0.0963
     28 C           1.2803    4.6518   -8.8057 C.3     1  UNL1        0.0393
     29 N           2.4236    4.2187   -7.9895 N.3     1  UNL1       -0.3248
     30 N           0.8818    5.8199  -11.0067 N.ar    1  UNL1       -0.1332
     31 N           3.6595    4.3561   -8.2484 N.ar    1  UNL1       -0.0654
     32 C          12.3024    3.7117   -7.0342 C.ar    1  UNL1       -0.0182
     33 C           9.4463    1.6788   -3.2036 C.ar    1  UNL1       -0.0370
     34 H           0.7366   -0.5039    0.9094 H       1  UNL1        0.0230
     35 H           0.7366   -0.5663   -0.8368 H       1  UNL1        0.0230
     36 H           0.7366    0.9771   -0.0177 H       1  UNL1        0.0230
     37 H           2.9699   -1.0392    0.0543 H       1  UNL1        0.0263
     38 H           2.9699    0.5042    0.8734 H       1  UNL1        0.0263
     39 H           2.7633    1.6489   -1.2835 H       1  UNL1        0.0280
     40 H           2.7633    0.1055   -2.1026 H       1  UNL1        0.0280
     41 H           4.9966   -0.3674   -1.2115 H       1  UNL1        0.0465
     42 H           4.9966    1.1760   -0.3924 H       1  UNL1        0.0465
     43 H           4.3263    1.3232   -4.3972 H       1  UNL1        0.0514
     44 H           4.3263    2.8666   -3.5781 H       1  UNL1        0.0514
     45 H           1.7964    2.4604   -4.6764 H       1  UNL1        0.0621
     46 H           0.1316    1.2620   -2.4182 H       1  UNL1        0.0618
     47 H          -0.6677    2.6422   -5.0188 H       1  UNL1        0.0618
     48 H          -3.2036    1.9385   -3.6929 H       1  UNL1        0.0618
     49 H           3.0169    0.4641   -0.9147 H       1  UNL1        0.0621
     50 H           6.4254    2.4168   -4.5942 H       1  UNL1        0.1564
     51 H           8.3199    3.1962   -6.0628 H       1  UNL1        0.0637
     52 H          11.0771    2.5841   -4.9095 H       1  UNL1        0.0655
     53 H           8.3092    4.4814   -6.6208 H       1  UNL1        0.0696
     54 H           8.3092    2.9379   -7.4399 H       1  UNL1        0.0696
     55 H           8.0661    4.0811   -9.5939 H       1  UNL1        0.0298
     56 H           8.0661    5.6245   -8.7748 H       1  UNL1        0.0298
     57 H           6.0547    4.9682   -7.5382 H       1  UNL1        0.0284
     58 H           6.0547    3.4248   -8.3573 H       1  UNL1        0.0284
     59 H           5.8117    4.5679  -10.5113 H       1  UNL1        0.0509
     60 H           5.8117    6.1113   -9.6922 H       1  UNL1        0.0509
     61 H           3.5469    5.9031  -11.1634 H       1  UNL1        0.0845
     62 H           0.6858    3.8013   -9.0667 H       1  UNL1        0.0488
     63 H           0.6858    5.3447   -8.2476 H       1  UNL1        0.0488
     64 H           2.9903    3.5582   -8.5215 H       1  UNL1        0.1186
     65 H           2.0836    3.7679   -7.1401 H       1  UNL1        0.1186
     66 H          13.1622    3.9793   -7.5384 H       1  UNL1        0.0655
     67 H           9.5108    1.1960   -2.2938 H       1  UNL1        0.0637
@<TRIPOS>BOND
     1     1     2    1
     2     2     3    1
     3     3     4    1
     4     4     5    1
     5     5     6    1
     6     6     7    1
     7     7     8   ar
     8     8     9   ar
     9     9    10   ar
    10    10    11   ar
    11    11    12   ar
    12     7    12   ar
    13     5    13   am
    14    13    14    2
    15    13    15   am
    16    15    16    1
    17    16    17   ar
    18    17    18   ar
    19    18    19   ar
    20    19    20    1
    21    20    21    1
    22    21    22    1
    23    22    23    1
    24    23    24    1
    25    24    25    1
    26    25    26   ar
    27    26    27   ar
    28    27    28    1
    29    28    29    1
    30    27    30   ar
    31    30    31   ar
    32    25    31   ar
    33    19    32   ar
    34    32    33   ar
    35    16    33   ar
    36     1    34    1
    37     1    35    1
    38     1    36    1
    39     2    37    1
    40     2    38    1
    41     3    39    1
    42     3    40    1
    43     4    41    1
    44     4    42    1
    45     6    43    1
    46     6    44    1
    47     8    45    1
    48     9    46    1
    49    10    47    1
    50    11    48    1
    51    12    49    1
    52    15    50    1
    53    17    51    1
    54    18    52    1
    55    21    53    1
    56    21    54    1
    57    22    55    1
    58    22    56    1
    59    23    57    1
    60    23    58    1
    61    24    59    1
    62    24    60    1
    63    26    61    1
    64    28    62    1
    65    28    63    1
    66    29    64    1
    67    29    65    1
    68    32    66    1
    69    33    67    1
