@<TRIPOS>MOLECULE
*****
 25 26 0 0 0
SMALL
GASTEIGER

@<TRIPOS>ATOM
      1 C           0.9403   -0.0794    0.0113 C.3     1  UNL1        0.0087
      2 C           2.4603   -0.0794    0.0113 C.3     1  UNL1        0.0118
      3 N           2.9503   -1.2909    0.6844 N.3     1  UNL1       -0.2946
      4 C           2.4603   -2.4796   -0.0283 C.3     1  UNL1        0.0354
      5 C           0.9403   -2.4796   -0.0283 C.3     1  UNL1        0.0128
      6 N           0.4503   -3.6683   -0.7409 N.3     1  UNL1       -0.3129
      7 C           2.9669   -3.7323    0.6677 C.3     1  UNL1        0.0128
      8 C           4.4203   -1.2909    0.6844 C.3     1  UNL1        0.0118
      9 C           4.9269   -2.5436    1.3804 C.3     1  UNL1        0.0087
     10 N           0.4503    1.1321   -0.6619 N.3     1  UNL1       -0.3136
     11 H           0.5836   -0.0960    1.0199 H       1  UNL1        0.0437
     12 H           0.5836   -0.9446   -0.5075 H       1  UNL1        0.0437
     13 H           2.8169    0.7858    0.5300 H       1  UNL1        0.0439
     14 H           2.8169   -0.0628   -0.9974 H       1  UNL1        0.0439
     15 H           2.8169   -2.4630   -1.0369 H       1  UNL1        0.0488
     16 H           0.5836   -1.5977   -0.5182 H       1  UNL1        0.0440
     17 H           0.5836   -2.4962    0.9804 H       1  UNL1        0.0440
     18 H           0.4342   -3.6830   -1.7607 H       1  UNL1        0.1220
     19 H           3.7973   -4.2753    0.2670 H       1  UNL1        0.0440
     20 H           3.2885   -3.9859    1.6562 H       1  UNL1        0.0440
     21 H           4.7769   -0.4257    1.2031 H       1  UNL1        0.0439
     22 H           4.7769   -1.2743   -0.3243 H       1  UNL1        0.0439
     23 H           5.2646   -2.5715    2.3953 H       1  UNL1        0.0437
     24 H           5.4289   -3.4825    1.2741 H       1  UNL1        0.0437
     25 H           0.1284    1.1587   -1.6294 H       1  UNL1        0.1220
@<TRIPOS>BOND
     1     1     2    1
     2     2     3    1
     3     3     4    1
     4     4     5    1
     5     5     6    1
     6     6     7    1
     7     4     7    1
     8     3     8    1
     9     8     9    1
    10     9    10    1
    11     1    10    1
    12     1    11    1
    13     1    12    1
    14     2    13    1
    15     2    14    1
    16     4    15    1
    17     5    16    1
    18     5    17    1
    19     6    18    1
    20     7    19    1
    21     7    20    1
    22     8    21    1
    23     8    22    1
    24     9    23    1
    25     9    24    1
    26    10    25    1
