@<TRIPOS>MOLECULE
*****
 37 37 0 0 0
SMALL
GASTEIGER

@<TRIPOS>ATOM
      1 C           0.9147    0.0138    0.0503 C.3     1  UNL1       -0.0653
      2 C           2.4347    0.0138    0.0503 C.3     1  UNL1       -0.0559
      3 C           2.9414    0.8461   -1.1163 C.3     1  UNL1       -0.0533
      4 C           4.4614    0.8461   -1.1163 C.3     1  UNL1       -0.0531
      5 C           4.9680    1.6783   -2.2829 C.3     1  UNL1       -0.0526
      6 C           6.4880    1.6783   -2.2829 C.3     1  UNL1       -0.0448
      7 C           6.9947    2.5105   -3.4496 C.3     1  UNL1        0.0243
      8 C           8.5147    2.5105   -3.4496 C.2     1  UNL1        0.2172
      9 O           9.1501    1.8714   -2.5536 O.2     1  UNL1       -0.2755
     10 N           9.2497    3.2499   -4.4860 N.am    1  UNL1       -0.2855
     11 C          10.7197    3.2499   -4.4860 C.ar    1  UNL1        0.0334
     12 C          11.4398    3.9742   -5.5014 C.ar    1  UNL1       -0.0405
     13 C          12.8800    3.9742   -5.5014 C.ar    1  UNL1       -0.0600
     14 C          13.6001    4.6985   -6.5167 C.ar    1  UNL1       -0.0616
     15 C          15.0403    4.6985   -6.5167 C.ar    1  UNL1       -0.0600
     16 C          11.4398    2.5255   -3.4706 C.ar    1  UNL1       -0.0405
     17 H           0.5580   -0.5720    0.8716 H       1  UNL1        0.0230
     18 H           0.5580   -0.4045   -0.8676 H       1  UNL1        0.0230
     19 H           0.5580    1.0180    0.1471 H       1  UNL1        0.0230
     20 H           2.7914   -0.9903   -0.0464 H       1  UNL1        0.0263
     21 H           2.7914    0.4321    0.9683 H       1  UNL1        0.0263
     22 H           2.5847    1.8502   -1.0196 H       1  UNL1        0.0265
     23 H           2.5847    0.4278   -2.0343 H       1  UNL1        0.0265
     24 H           4.8180   -0.1581   -1.2130 H       1  UNL1        0.0265
     25 H           4.8180    1.2644   -0.1983 H       1  UNL1        0.0265
     26 H           4.6114    2.6825   -2.1862 H       1  UNL1        0.0265
     27 H           4.6114    1.2600   -3.2009 H       1  UNL1        0.0265
     28 H           6.8447    0.6741   -2.3797 H       1  UNL1        0.0270
     29 H           6.8447    2.0966   -1.3650 H       1  UNL1        0.0270
     30 H           6.6380    3.5147   -3.3529 H       1  UNL1        0.0358
     31 H           6.6380    2.0922   -4.3676 H       1  UNL1        0.0358
     32 H           8.7574    3.7450   -5.1801 H       1  UNL1        0.1548
     33 H          10.9238    4.4932   -6.2289 H       1  UNL1        0.0636
     34 H          13.3960    3.4552   -4.7738 H       1  UNL1        0.0618
     35 H          13.0841    5.2175   -7.2443 H       1  UNL1        0.0618
     36 H          15.9899    4.9332   -6.8457 H       1  UNL1        0.0618
     37 H          11.3149    1.9306   -2.6366 H       1  UNL1        0.0636
@<TRIPOS>BOND
     1     1     2    1
     2     2     3    1
     3     3     4    1
     4     4     5    1
     5     5     6    1
     6     6     7    1
     7     7     8    1
     8     8     9    2
     9     8    10   am
    10    10    11    1
    11    11    12   ar
    12    12    13   ar
    13    13    14   ar
    14    14    15   ar
    15    15    16   ar
    16    11    16   ar
    17     1    17    1
    18     1    18    1
    19     1    19    1
    20     2    20    1
    21     2    21    1
    22     3    22    1
    23     3    23    1
    24     4    24    1
    25     4    25    1
    26     5    26    1
    27     5    27    1
    28     6    28    1
    29     6    29    1
    30     7    30    1
    31     7    31    1
    32    10    32    1
    33    12    33    1
    34    13    34    1
    35    14    35    1
    36    15    36    1
    37    16    37    1
