@<TRIPOS>MOLECULE
*****
 15 14 0 0 0
SMALL
GASTEIGER

@<TRIPOS>ATOM
      1 C           0.9803   -0.0201   -0.0960 C.3     1  UNL1       -0.0632
      2 C           2.5003   -0.0201   -0.0960 C.3     1  UNL1       -0.0323
      3 C           3.0070   -1.1523    0.7826 C.3     1  UNL1        0.0471
      4 O           4.4270   -1.1523    0.7826 O.3     1  UNL1       -0.3830
      5 C           4.9003   -2.2100    1.6034 C.3     1  UNL1        0.0364
      6 H           0.6236    0.7769   -0.7144 H       1  UNL1        0.0230
      7 H           0.6236    0.1170    0.9035 H       1  UNL1        0.0230
      8 H           0.6236   -0.9542   -0.4769 H       1  UNL1        0.0230
      9 H           2.8570    0.9140    0.2850 H       1  UNL1        0.0285
     10 H           2.8570   -0.1572   -1.0954 H       1  UNL1        0.0285
     11 H           2.6503   -2.0864    0.4016 H       1  UNL1        0.0559
     12 H           2.6503   -1.0152    1.7821 H       1  UNL1        0.0559
     13 H           5.9703   -2.2100    1.6034 H       1  UNL1        0.0523
     14 H           4.5436   -3.1441    1.2224 H       1  UNL1        0.0523
     15 H           4.5436   -2.0729    2.6028 H       1  UNL1        0.0523
@<TRIPOS>BOND
     1     1     2    1
     2     2     3    1
     3     3     4    1
     4     4     5    1
     5     1     6    1
     6     1     7    1
     7     1     8    1
     8     2     9    1
     9     2    10    1
    10     3    11    1
    11     3    12    1
    12     5    13    1
    13     5    14    1
    14     5    15    1
