@<TRIPOS>MOLECULE
*****
 16 15 0 0 0
SMALL
GASTEIGER

@<TRIPOS>ATOM
      1 C           1.0010    0.0271   -0.0963 C.1     1  UNL1       -0.1192
      2 C           2.3048    0.0271   -0.0963 C.1     1  UNL1       -0.1056
      3 C           3.8248    0.0271   -0.0963 C.3     1  UNL1        0.0089
      4 C           4.3315   -1.3668   -0.4288 C.3     1  UNL1       -0.0424
      5 C           5.8515   -1.3668   -0.4288 C.3     1  UNL1       -0.0551
      6 C           6.3581   -2.7608   -0.7613 C.3     1  UNL1       -0.0652
      7 H           0.0070    0.0271   -0.0963 H       1  UNL1        0.1228
      8 H           4.1815    0.3150    0.8706 H       1  UNL1        0.0397
      9 H           4.1815    0.7205   -0.8290 H       1  UNL1        0.0397
     10 H           3.9748   -1.6548   -1.3956 H       1  UNL1        0.0274
     11 H           3.9748   -2.0602    0.3040 H       1  UNL1        0.0274
     12 H           6.2081   -1.0789    0.5381 H       1  UNL1        0.0263
     13 H           6.2082   -0.6735   -1.1615 H       1  UNL1        0.0263
     14 H           6.0015   -3.4542   -0.0286 H       1  UNL1        0.0230
     15 H           7.4281   -2.7608   -0.7613 H       1  UNL1        0.0230
     16 H           6.0015   -3.0487   -1.7282 H       1  UNL1        0.0230
@<TRIPOS>BOND
     1     1     2    3
     2     2     3    1
     3     3     4    1
     4     4     5    1
     5     5     6    1
     6     1     7    1
     7     3     8    1
     8     3     9    1
     9     4    10    1
    10     4    11    1
    11     5    12    1
    12     5    13    1
    13     6    14    1
    14     6    15    1
    15     6    16    1
