@<TRIPOS>MOLECULE
*****
 26 26 0 0 0
SMALL
GASTEIGER

@<TRIPOS>ATOM
      1 C           0.9760    0.0688   -0.0685 C.3     1  UNL1        0.0364
      2 O           2.3960    0.0688   -0.0685 O.3     1  UNL1       -0.3829
      3 C           2.8693    0.2028   -1.4005 C.3     1  UNL1        0.0504
      4 C           4.3893    0.2028   -1.4005 C.3     1  UNL1        0.0049
      5 C           4.8960    0.3463   -2.8264 C.3     1  UNL1        0.0917
      6 O           6.3160    0.3463   -2.8264 O.3     1  UNL1       -0.4919
      7 C           7.0260    0.4694   -4.0500 C.ar    1  UNL1        0.1205
      8 C           8.4662    0.4694   -4.0500 C.ar    1  UNL1       -0.0199
      9 C           9.1863    0.5942   -5.2910 C.ar    1  UNL1       -0.0583
     10 C          10.6265    0.5942   -5.2910 C.ar    1  UNL1       -0.0615
     11 C          11.3466    0.7191   -6.5319 C.ar    1  UNL1       -0.0583
     12 C           6.3059    0.5942   -5.2910 C.ar    1  UNL1       -0.0199
     13 H           0.6193   -0.0322    0.9353 H       1  UNL1        0.0523
     14 H           0.6193   -0.7499   -0.6578 H       1  UNL1        0.0523
     15 H           0.6193    0.9886   -0.4829 H       1  UNL1        0.0523
     16 H           2.5127    1.1226   -1.8149 H       1  UNL1        0.0561
     17 H           2.5127   -0.6159   -1.9898 H       1  UNL1        0.0561
     18 H           4.7460   -0.7169   -0.9861 H       1  UNL1        0.0320
     19 H           4.7460    1.0216   -0.8112 H       1  UNL1        0.0320
     20 H           4.5393    1.2660   -3.2408 H       1  UNL1        0.0697
     21 H           4.5393   -0.4725   -3.4157 H       1  UNL1        0.0697
     22 H           8.9822    0.3799   -3.1607 H       1  UNL1        0.0654
     23 H           8.6703    0.6837   -6.1802 H       1  UNL1        0.0619
     24 H          11.1425    0.5048   -4.4017 H       1  UNL1        0.0618
     25 H          12.1713    0.7812   -7.1492 H       1  UNL1        0.0619
     26 H           5.3563    0.6347   -5.6930 H       1  UNL1        0.0654
@<TRIPOS>BOND
     1     1     2    1
     2     2     3    1
     3     3     4    1
     4     4     5    1
     5     5     6    1
     6     6     7    1
     7     7     8   ar
     8     8     9   ar
     9     9    10   ar
    10    10    11   ar
    11    11    12   ar
    12     7    12   ar
    13     1    13    1
    14     1    14    1
    15     1    15    1
    16     3    16    1
    17     3    17    1
    18     4    18    1
    19     4    19    1
    20     5    20    1
    21     5    21    1
    22     8    22    1
    23     9    23    1
    24    10    24    1
    25    11    25    1
    26    12    26    1
