@<TRIPOS>MOLECULE
*****
 10 9 0 0 0
SMALL
GASTEIGER

@<TRIPOS>ATOM
      1 O           0.9838    0.0319   -0.0934 O.2     1  UNL1       -0.2993
      2 C           2.2547    0.0319   -0.0934 C.2     1  UNL1        0.1409
      3 C           3.0147   -1.2541    0.1874 C.3     1  UNL1        0.1180
      4 S           4.7942   -0.9310    0.1169 S.O2    1  UNL1       -0.0346
      5 O           5.1639    0.1196    1.1665 O.2     1  UNL1       -0.1767
      6 O           5.5594   -2.2259    0.3996 O.2     1  UNL1       -0.1767
      7 H           2.7707    0.9051   -0.2840 H       1  UNL1        0.1043
      8 H           2.7562   -1.9887   -0.5464 H       1  UNL1        0.0573
      9 H           2.7562   -1.6159    1.1607 H       1  UNL1        0.0573
     10 H           5.1228   -0.4711   -1.1201 H       1  UNL1        0.2095
@<TRIPOS>BOND
     1     1     2    2
     2     2     3    1
     3     3     4    1
     4     4     5    2
     5     4     6    2
     6     2     7    1
     7     3     8    1
     8     3     9    1
     9     4    10    1
