@<TRIPOS>MOLECULE
*****
 18 17 0 0 0
SMALL
GASTEIGER

@<TRIPOS>ATOM
      1 N           1.0203   -0.0857   -0.0474 N.3     1  UNL1       -0.3279
      2 C           2.4903   -0.0857   -0.0474 C.3     1  UNL1        0.0166
      3 C           2.9970    0.9103    0.9830 C.3     1  UNL1        0.0600
      4 O           4.4170    0.9103    0.9830 O.3     1  UNL1       -0.3763
      5 C           4.8903    1.8407    1.9456 C.3     1  UNL1        0.0708
      6 C           6.4103    1.8407    1.9456 C.3     1  UNL1        0.0676
      7 O           6.8836    2.7712    2.9083 O.3     1  UNL1       -0.3927
      8 H           0.6803   -0.7540   -0.7388 H       1  UNL1        0.1183
      9 H           0.6803    0.8473   -0.2805 H       1  UNL1        0.1183
     10 H           2.8470    0.1919   -1.0172 H       1  UNL1        0.0444
     11 H           2.8470   -1.0644    0.1971 H       1  UNL1        0.0444
     12 H           2.6403    0.6327    1.9529 H       1  UNL1        0.0572
     13 H           2.6403    1.8890    0.7385 H       1  UNL1        0.0572
     14 H           4.5336    1.5631    2.9155 H       1  UNL1        0.0583
     15 H           4.5336    2.8195    1.7011 H       1  UNL1        0.0583
     16 H           6.7670    2.1183    0.9758 H       1  UNL1        0.0580
     17 H           6.7670    0.8620    2.1901 H       1  UNL1        0.0580
     18 H           6.5603    3.6584    2.6866 H       1  UNL1        0.2095
@<TRIPOS>BOND
     1     1     2    1
     2     2     3    1
     3     3     4    1
     4     4     5    1
     5     5     6    1
     6     6     7    1
     7     1     8    1
     8     1     9    1
     9     2    10    1
    10     2    11    1
    11     3    12    1
    12     3    13    1
    13     5    14    1
    14     5    15    1
    15     6    16    1
    16     6    17    1
    17     7    18    1
