@<TRIPOS>MOLECULE
*****
 31 32 0 0 0
SMALL
GASTEIGER

@<TRIPOS>ATOM
      1 C           1.0870   -0.0452   -0.0198 C.3     1  UNL1       -0.0027
      2 C           2.6070   -0.0452   -0.0198 C.3     1  UNL1       -0.0247
      3 C           3.1136   -1.3942    0.4637 C.3     1  UNL1        0.0128
      4 N           2.6236   -2.4516   -0.4323 N.3     1  UNL1       -0.2969
      5 C           1.1536   -2.4516   -0.4323 C.3     1  UNL1        0.0118
      6 C           0.6470   -3.5449   -1.3588 C.3     1  UNL1        0.0087
      7 N          -0.8230   -3.5448   -1.3588 N.3     1  UNL1       -0.3136
      8 C          -1.3131   -4.6022   -2.2548 C.3     1  UNL1        0.0087
      9 C           3.1136   -3.7562    0.0354 C.3     1  UNL1        0.0118
     10 C           4.6336   -1.3942    0.4637 C.3     1  UNL1       -0.0247
     11 C           5.1403   -2.7433    0.9473 C.3     1  UNL1       -0.0027
     12 N           0.5970    1.2594   -0.4875 N.3     1  UNL1       -0.3159
     13 H           0.7303   -0.2252    0.9728 H       1  UNL1        0.0424
     14 H           0.7303   -0.8148   -0.6720 H       1  UNL1        0.0424
     15 H           2.9636    0.7244    0.6324 H       1  UNL1        0.0293
     16 H           2.9636    0.1348   -1.0125 H       1  UNL1        0.0293
     17 H           2.7570   -1.5742    1.4563 H       1  UNL1        0.0463
     18 H           0.7970   -1.5019   -0.7727 H       1  UNL1        0.0439
     19 H           0.7970   -2.6316    0.5603 H       1  UNL1        0.0439
     20 H           1.0036   -4.4945   -1.0184 H       1  UNL1        0.0437
     21 H           1.0036   -3.3648   -2.3514 H       1  UNL1        0.0437
     22 H          -1.1630   -2.6396   -1.6833 H       1  UNL1        0.1220
     23 H          -1.4499   -4.4393   -3.3034 H       1  UNL1        0.0437
     24 H          -2.0834   -5.3424   -2.3136 H       1  UNL1        0.0437
     25 H           3.9944   -4.1498   -0.4275 H       1  UNL1        0.0439
     26 H           3.4282   -4.0435    1.0169 H       1  UNL1        0.0439
     27 H           4.9903   -0.6246    1.1159 H       1  UNL1        0.0293
     28 H           4.9903   -1.2142   -0.5289 H       1  UNL1        0.0293
     29 H           5.4784   -2.9351    1.9442 H       1  UNL1        0.0424
     30 H           5.6429   -3.6521    0.6898 H       1  UNL1        0.0424
     31 H           0.2746    1.4424   -1.4378 H       1  UNL1        0.1219
@<TRIPOS>BOND
     1     1     2    1
     2     2     3    1
     3     3     4    1
     4     4     5    1
     5     5     6    1
     6     6     7    1
     7     7     8    1
     8     8     9    1
     9     4     9    1
    10     3    10    1
    11    10    11    1
    12    11    12    1
    13     1    12    1
    14     1    13    1
    15     1    14    1
    16     2    15    1
    17     2    16    1
    18     3    17    1
    19     5    18    1
    20     5    19    1
    21     6    20    1
    22     6    21    1
    23     7    22    1
    24     8    23    1
    25     8    24    1
    26     9    25    1
    27     9    26    1
    28    10    27    1
    29    10    28    1
    30    11    29    1
    31    11    30    1
    32    12    31    1
