@<TRIPOS>MOLECULE
*****
 41 41 0 0 0
SMALL
GASTEIGER

@<TRIPOS>ATOM
      1 O           0.9809    0.0901   -0.0390 O.2     1  UNL1       -0.2729
      2 C           2.2518    0.0901   -0.0390 C.2     1  UNL1        0.2430
      3 C           3.0118    0.8698    1.0216 C.3     1  UNL1        0.1241
      4 O           2.0890    1.5091    1.8912 O.3     1  UNL1       -0.3683
      5 C           2.7990    2.2375    2.8820 C.3     1  UNL1        0.0716
      6 C           1.8113    2.9218    3.8128 C.3     1  UNL1        0.0711
      7 O           2.5213    3.6502    4.8036 O.3     1  UNL1       -0.3752
      8 C           1.5985    4.2895    5.6732 C.3     1  UNL1        0.0711
      9 C           2.3585    5.0692    6.7338 C.3     1  UNL1        0.0711
     10 O           1.4357    5.7085    7.6034 O.3     1  UNL1       -0.3752
     11 C           2.1457    6.4369    8.5942 C.3     1  UNL1        0.0708
     12 C           1.1580    7.1212    9.5251 C.3     1  UNL1        0.0676
     13 O           1.8680    7.8497   10.5159 O.3     1  UNL1       -0.3927
     14 N           2.9868   -0.6640   -1.0647 N.am    1  UNL1       -0.2836
     15 C           4.4568   -0.6640   -1.0647 C.ar    1  UNL1        0.0335
     16 C           5.1769   -1.4028   -2.0697 C.ar    1  UNL1       -0.0405
     17 C           6.6171   -1.4028   -2.0697 C.ar    1  UNL1       -0.0600
     18 C           7.3372   -2.1415   -3.0746 C.ar    1  UNL1       -0.0616
     19 C           8.7774   -2.1415   -3.0746 C.ar    1  UNL1       -0.0600
     20 C           5.1769    0.0748   -0.0598 C.ar    1  UNL1       -0.0405
     21 H           3.6269    1.6072    0.5497 H       1  UNL1        0.0657
     22 H           3.6269    0.1994    1.5847 H       1  UNL1        0.0657
     23 H           3.4142    2.9750    2.4102 H       1  UNL1        0.0583
     24 H           3.4142    1.5671    3.4451 H       1  UNL1        0.0583
     25 H           1.1961    2.1843    4.2846 H       1  UNL1        0.0583
     26 H           1.1961    3.5921    3.2497 H       1  UNL1        0.0583
     27 H           0.9833    3.5520    6.1450 H       1  UNL1        0.0583
     28 H           0.9833    4.9598    5.1101 H       1  UNL1        0.0583
     29 H           2.9737    5.8067    6.2620 H       1  UNL1        0.0583
     30 H           2.9737    4.3989    7.2970 H       1  UNL1        0.0583
     31 H           2.7609    7.1744    8.1224 H       1  UNL1        0.0583
     32 H           2.7609    5.7666    9.1574 H       1  UNL1        0.0583
     33 H           0.5428    6.3838    9.9969 H       1  UNL1        0.0580
     34 H           0.5428    7.7916    8.9619 H       1  UNL1        0.0580
     35 H           2.4257    7.2420   11.0264 H       1  UNL1        0.2095
     36 H           2.4945   -1.1690   -1.7517 H       1  UNL1        0.1549
     37 H           4.6609   -1.9322   -2.7897 H       1  UNL1        0.0636
     38 H           7.1331   -0.8734   -1.3496 H       1  UNL1        0.0618
     39 H           6.8212   -2.6709   -3.7946 H       1  UNL1        0.0618
     40 H           9.7270   -2.3809   -3.4001 H       1  UNL1        0.0618
     41 H           5.0520    0.6816    0.7655 H       1  UNL1        0.0636
@<TRIPOS>BOND
     1     1     2    2
     2     2     3    1
     3     3     4    1
     4     4     5    1
     5     5     6    1
     6     6     7    1
     7     7     8    1
     8     8     9    1
     9     9    10    1
    10    10    11    1
    11    11    12    1
    12    12    13    1
    13     2    14   am
    14    14    15    1
    15    15    16   ar
    16    16    17   ar
    17    17    18   ar
    18    18    19   ar
    19    19    20   ar
    20    15    20   ar
    21     3    21    1
    22     3    22    1
    23     5    23    1
    24     5    24    1
    25     6    25    1
    26     6    26    1
    27     8    27    1
    28     8    28    1
    29     9    29    1
    30     9    30    1
    31    11    31    1
    32    11    32    1
    33    12    33    1
    34    12    34    1
    35    13    35    1
    36    14    36    1
    37    16    37    1
    38    17    38    1
    39    18    39    1
    40    19    40    1
    41    20    41    1
