@<TRIPOS>MOLECULE
*****
 42 42 0 0 0
SMALL
GASTEIGER

@<TRIPOS>ATOM
      1 C           0.9350   -0.0600   -0.0465 C.3     1  UNL1       -0.0653
      2 C           2.4550   -0.0600   -0.0465 C.3     1  UNL1       -0.0559
      3 C           2.9616   -1.4774    0.1648 C.3     1  UNL1       -0.0533
      4 C           4.4816   -1.4774    0.1648 C.3     1  UNL1       -0.0531
      5 C           4.9883   -2.8948    0.3762 C.3     1  UNL1       -0.0526
      6 C           6.5083   -2.8948    0.3762 C.3     1  UNL1       -0.0448
      7 C           7.0149   -4.3122    0.5875 C.3     1  UNL1        0.0242
      8 C           8.5349   -4.3122    0.5875 C.2     1  UNL1        0.2156
      9 O           9.1704   -3.2237    0.4252 O.2     1  UNL1       -0.2756
     10 N           9.2699   -5.5714    0.7753 N.am    1  UNL1       -0.2990
     11 C          10.7399   -5.5714    0.7753 C.3     1  UNL1        0.0275
     12 C          11.2466   -6.9888    0.9866 C.3     1  UNL1        0.0145
     13 N          12.7166   -6.9888    0.9866 N.3     1  UNL1       -0.3024
     14 C          13.2066   -6.1264    2.0716 C.3     1  UNL1       -0.0126
     15 C          13.2066   -8.3596    1.1910 C.3     1  UNL1        0.0145
     16 C           8.5349   -6.8305    0.9630 C.3     1  UNL1        0.0275
     17 H           0.5783    0.9377   -0.1953 H       1  UNL1        0.0230
     18 H           0.5783   -0.4301    0.8920 H       1  UNL1        0.0230
     19 H           0.5783   -0.6878   -0.8362 H       1  UNL1        0.0230
     20 H           2.8116    0.5677    0.7432 H       1  UNL1        0.0263
     21 H           2.8116    0.3100   -0.9850 H       1  UNL1        0.0263
     22 H           2.6049   -2.1052   -0.6249 H       1  UNL1        0.0265
     23 H           2.6049   -1.8475    1.1033 H       1  UNL1        0.0265
     24 H           4.8383   -0.8497    0.9545 H       1  UNL1        0.0265
     25 H           4.8383   -1.1074   -0.7737 H       1  UNL1        0.0265
     26 H           4.6316   -3.5226   -0.4135 H       1  UNL1        0.0265
     27 H           4.6316   -3.2649    1.3147 H       1  UNL1        0.0265
     28 H           6.8649   -2.2671    1.1659 H       1  UNL1        0.0270
     29 H           6.8649   -2.5248   -0.5623 H       1  UNL1        0.0270
     30 H           6.6583   -4.9400   -0.2022 H       1  UNL1        0.0358
     31 H           6.6583   -4.6823    1.5260 H       1  UNL1        0.0358
     32 H          11.0966   -4.9437    1.5650 H       1  UNL1        0.0477
     33 H          11.0966   -5.2013   -0.1632 H       1  UNL1        0.0477
     34 H          10.8899   -7.6165    0.1969 H       1  UNL1        0.0442
     35 H          10.8899   -7.3588    1.9251 H       1  UNL1        0.0442
     36 H          12.8499   -5.1286    1.9228 H       1  UNL1        0.0391
     37 H          14.2766   -6.1264    2.0716 H       1  UNL1        0.0391
     38 H          12.8499   -6.4964    3.0100 H       1  UNL1        0.0391
     39 H          13.6478   -8.6584    2.1189 H       1  UNL1        0.0442
     40 H          13.8415   -9.0628    0.6937 H       1  UNL1        0.0442
     41 H           7.9576   -6.9191    1.8595 H       1  UNL1        0.0477
     42 H           7.7688   -7.2205    0.3260 H       1  UNL1        0.0477
@<TRIPOS>BOND
     1     1     2    1
     2     2     3    1
     3     3     4    1
     4     4     5    1
     5     5     6    1
     6     6     7    1
     7     7     8    1
     8     8     9    2
     9     8    10   am
    10    10    11    1
    11    11    12    1
    12    12    13    1
    13    13    14    1
    14    13    15    1
    15    15    16    1
    16    10    16    1
    17     1    17    1
    18     1    18    1
    19     1    19    1
    20     2    20    1
    21     2    21    1
    22     3    22    1
    23     3    23    1
    24     4    24    1
    25     4    25    1
    26     5    26    1
    27     5    27    1
    28     6    28    1
    29     6    29    1
    30     7    30    1
    31     7    31    1
    32    11    32    1
    33    11    33    1
    34    12    34    1
    35    12    35    1
    36    14    36    1
    37    14    37    1
    38    14    38    1
    39    15    39    1
    40    15    40    1
    41    16    41    1
    42    16    42    1
