@<TRIPOS>MOLECULE
*****
 16 15 0 0 0
SMALL
GASTEIGER

@<TRIPOS>ATOM
      1 C           1.0349   -0.0272   -0.0897 C.3     1  UNL1        0.0364
      2 O           2.4549   -0.0272   -0.0897 O.3     1  UNL1       -0.3829
      3 C           2.9282   -0.9996    0.8305 C.3     1  UNL1        0.0494
      4 C           4.4482   -0.9996    0.8305 C.3     1  UNL1       -0.0062
      5 C           4.9549   -2.0405    1.8155 C.3     1  UNL1        0.0463
      6 O           6.3749   -2.0405    1.8155 O.3     1  UNL1       -0.3949
      7 H           0.6782    0.7056   -0.7831 H       1  UNL1        0.0523
      8 H           0.6782    0.2070    0.8916 H       1  UNL1        0.0523
      9 H           0.6782   -0.9940   -0.3776 H       1  UNL1        0.0523
     10 H           2.5716   -1.9664    0.5426 H       1  UNL1        0.0560
     11 H           2.5716   -0.7655    1.8118 H       1  UNL1        0.0560
     12 H           4.8049   -0.0327    1.1184 H       1  UNL1        0.0309
     13 H           4.8049   -1.2337   -0.1507 H       1  UNL1        0.0309
     14 H           4.5982   -3.0073    1.5276 H       1  UNL1        0.0558
     15 H           4.5982   -1.8064    2.7968 H       1  UNL1        0.0558
     16 H           6.6982   -2.2527    0.9260 H       1  UNL1        0.2094
@<TRIPOS>BOND
     1     1     2    1
     2     2     3    1
     3     3     4    1
     4     4     5    1
     5     5     6    1
     6     1     7    1
     7     1     8    1
     8     1     9    1
     9     3    10    1
    10     3    11    1
    11     4    12    1
    12     4    13    1
    13     5    14    1
    14     5    15    1
    15     6    16    1
