@<TRIPOS>MOLECULE
*****
 41 40 0 0 0
SMALL
GASTEIGER

@<TRIPOS>ATOM
      1 C           0.9472    0.0661   -0.0533 C.3     1  UNL1       -0.0653
      2 C           2.4672    0.0661   -0.0533 C.3     1  UNL1       -0.0559
      3 C           2.9739   -0.2096   -1.4596 C.3     1  UNL1       -0.0533
      4 C           4.4939   -0.2096   -1.4596 C.3     1  UNL1       -0.0526
      5 C           5.0005   -0.4854   -2.8659 C.3     1  UNL1       -0.0448
      6 C           6.5205   -0.4854   -2.8659 C.3     1  UNL1        0.0241
      7 C           7.0272   -0.7611   -4.2722 C.2     1  UNL1        0.2154
      8 O           6.2013   -0.9470   -5.2201 O.2     1  UNL1       -0.2756
      9 N           8.4725   -0.8128   -4.5358 N.am    1  UNL1       -0.3033
     10 C           9.4277   -0.5978   -3.4394 C.3     1  UNL1        0.0032
     11 C           8.9625   -1.0795   -5.8958 C.3     1  UNL1        0.0271
     12 C          10.4825   -1.0795   -5.8958 C.3     1  UNL1        0.0141
     13 N          10.9724   -1.3461   -7.2559 N.3     1  UNL1       -0.3069
     14 C          10.4824   -0.3016   -8.1668 C.3     1  UNL1       -0.0130
     15 C          12.4424   -1.3461   -7.2559 C.3     1  UNL1       -0.0130
     16 H           0.5906    0.2602    0.9366 H       1  UNL1        0.0230
     17 H           0.5906   -0.8883   -0.3802 H       1  UNL1        0.0230
     18 H           0.5906    0.8264   -0.7164 H       1  UNL1        0.0230
     19 H           2.8239   -0.6941    0.6098 H       1  UNL1        0.0263
     20 H           2.8239    1.0205    0.2736 H       1  UNL1        0.0263
     21 H           2.6172    0.5507   -2.1227 H       1  UNL1        0.0265
     22 H           2.6172   -1.1640   -1.7865 H       1  UNL1        0.0265
     23 H           4.8506   -0.9699   -0.7965 H       1  UNL1        0.0265
     24 H           4.8506    0.7448   -1.1327 H       1  UNL1        0.0265
     25 H           4.6439    0.2749   -3.5290 H       1  UNL1        0.0270
     26 H           4.6439   -1.4397   -3.1928 H       1  UNL1        0.0270
     27 H           6.8772   -1.2456   -2.2028 H       1  UNL1        0.0358
     28 H           6.8772    0.4690   -2.5390 H       1  UNL1        0.0358
     29 H           8.8927   -0.4195   -2.5300 H       1  UNL1        0.0428
     30 H          10.0429    0.2486   -3.6631 H       1  UNL1        0.0428
     31 H          10.0429   -1.4660   -3.3269 H       1  UNL1        0.0428
     32 H           8.6058   -0.3192   -6.5589 H       1  UNL1        0.0477
     33 H           8.6058   -2.0338   -6.2227 H       1  UNL1        0.0477
     34 H          10.8391   -1.8397   -5.2327 H       1  UNL1        0.0442
     35 H          10.8391   -0.1251   -5.5690 H       1  UNL1        0.0442
     36 H           9.4124   -0.3017   -8.1668 H       1  UNL1        0.0391
     37 H          10.8391   -0.4958   -9.1568 H       1  UNL1        0.0391
     38 H          10.8391    0.6527   -7.8399 H       1  UNL1        0.0391
     39 H          12.7991   -2.1064   -6.5928 H       1  UNL1        0.0391
     40 H          12.7991   -0.3918   -6.9290 H       1  UNL1        0.0391
     41 H          12.7991   -1.5402   -8.2458 H       1  UNL1        0.0391
@<TRIPOS>BOND
     1     1     2    1
     2     2     3    1
     3     3     4    1
     4     4     5    1
     5     5     6    1
     6     6     7    1
     7     7     8    2
     8     7     9   am
     9     9    10    1
    10     9    11    1
    11    11    12    1
    12    12    13    1
    13    13    14    1
    14    13    15    1
    15     1    16    1
    16     1    17    1
    17     1    18    1
    18     2    19    1
    19     2    20    1
    20     3    21    1
    21     3    22    1
    22     4    23    1
    23     4    24    1
    24     5    25    1
    25     5    26    1
    26     6    27    1
    27     6    28    1
    28    10    29    1
    29    10    30    1
    30    10    31    1
    31    11    32    1
    32    11    33    1
    33    12    34    1
    34    12    35    1
    35    14    36    1
    36    14    37    1
    37    14    38    1
    38    15    39    1
    39    15    40    1
    40    15    41    1
