@<TRIPOS>MOLECULE
*****
 41 40 0 0 0
SMALL
GASTEIGER

@<TRIPOS>ATOM
      1 C           1.0555   -0.0596   -0.0581 C.3     1  UNL1        0.0121
      2 C           2.5755   -0.0596   -0.0581 C.2     1  UNL1        0.2099
      3 O           3.2109   -0.5545   -1.0411 O.2     1  UNL1       -0.2761
      4 N           3.3105    0.5129    1.0790 N.am    1  UNL1       -0.3155
      5 C           4.7805    0.5129    1.0790 C.3     1  UNL1        0.0116
      6 C           5.2871    1.1574    2.3590 C.3     1  UNL1       -0.0374
      7 C           6.8071    1.1574    2.3590 C.3     1  UNL1       -0.0516
      8 C           7.3138    1.8018    3.6390 C.3     1  UNL1       -0.0530
      9 C           8.8338    1.8018    3.6390 C.3     1  UNL1       -0.0530
     10 C           9.3405    2.4463    4.9190 C.3     1  UNL1       -0.0516
     11 C          10.8605    2.4463    4.9190 C.3     1  UNL1       -0.0374
     12 C          11.3671    3.0907    6.1990 C.3     1  UNL1        0.0117
     13 N          12.8371    3.0907    6.1990 N.am    1  UNL1       -0.3134
     14 C          13.5721    3.6632    7.3360 C.2     1  UNL1        0.2385
     15 O          12.9367    4.1581    8.3191 O.2     1  UNL1       -0.2733
     16 C          15.0921    3.6632    7.3360 C.3     1  UNL1        0.1202
     17 O          15.5654    4.2652    8.5318 O.3     1  UNL1       -0.3858
     18 H           0.6988   -0.5132   -0.9591 H       1  UNL1        0.0322
     19 H           0.6988    0.9476   -0.0004 H       1  UNL1        0.0322
     20 H           0.6988   -0.6131    0.7853 H       1  UNL1        0.0322
     21 H           2.8182    0.8963    1.8405 H       1  UNL1        0.1487
     22 H           5.1371    1.0664    0.2356 H       1  UNL1        0.0462
     23 H           5.1371   -0.4942    1.0214 H       1  UNL1        0.0462
     24 H           4.9305    0.6039    3.2024 H       1  UNL1        0.0280
     25 H           4.9305    2.1645    2.4166 H       1  UNL1        0.0280
     26 H           7.1638    1.7109    1.5156 H       1  UNL1        0.0266
     27 H           7.1638    0.1502    2.3013 H       1  UNL1        0.0266
     28 H           6.9571    1.2483    4.4824 H       1  UNL1        0.0265
     29 H           6.9571    2.8090    3.6966 H       1  UNL1        0.0265
     30 H           9.1905    2.3553    2.7956 H       1  UNL1        0.0265
     31 H           9.1905    0.7946    3.5813 H       1  UNL1        0.0265
     32 H           8.9838    1.8928    5.7624 H       1  UNL1        0.0266
     33 H           8.9838    3.4534    4.9766 H       1  UNL1        0.0266
     34 H          11.2171    2.9998    4.0756 H       1  UNL1        0.0280
     35 H          11.2171    1.4391    4.8613 H       1  UNL1        0.0280
     36 H          11.0105    2.5372    7.0424 H       1  UNL1        0.0462
     37 H          11.0105    4.0979    6.2566 H       1  UNL1        0.0462
     38 H          13.3294    2.7073    5.4374 H       1  UNL1        0.1487
     39 H          15.4488    4.2167    6.4926 H       1  UNL1        0.0654
     40 H          15.4488    2.6560    7.2784 H       1  UNL1        0.0654
     41 H          15.2421    5.1783    8.5841 H       1  UNL1        0.2100
@<TRIPOS>BOND
     1     1     2    1
     2     2     3    2
     3     2     4   am
     4     4     5    1
     5     5     6    1
     6     6     7    1
     7     7     8    1
     8     8     9    1
     9     9    10    1
    10    10    11    1
    11    11    12    1
    12    12    13    1
    13    13    14   am
    14    14    15    2
    15    14    16    1
    16    16    17    1
    17     1    18    1
    18     1    19    1
    19     1    20    1
    20     4    21    1
    21     5    22    1
    22     5    23    1
    23     6    24    1
    24     6    25    1
    25     7    26    1
    26     7    27    1
    27     8    28    1
    28     8    29    1
    29     9    30    1
    30     9    31    1
    31    10    32    1
    32    10    33    1
    33    11    34    1
    34    11    35    1
    35    12    36    1
    36    12    37    1
    37    13    38    1
    38    16    39    1
    39    16    40    1
    40    17    41    1
