@<TRIPOS>MOLECULE
*****
 40 40 0 0 0
SMALL
GASTEIGER

@<TRIPOS>ATOM
      1 N           0.9684   -0.0844    0.0433 N.3     1  UNL1       -0.3279
      2 C           2.4384   -0.0844    0.0433 C.3     1  UNL1        0.0166
      3 C           2.9450   -1.1599    0.9905 C.3     1  UNL1        0.0600
      4 O           4.3650   -1.1599    0.9905 O.3     1  UNL1       -0.3763
      5 C           4.8384   -2.1646    1.8753 C.3     1  UNL1        0.0711
      6 C           6.3584   -2.1646    1.8753 C.3     1  UNL1        0.0711
      7 O           6.8317   -3.1692    2.7601 O.3     1  UNL1       -0.3757
      8 C           8.2517   -3.1692    2.7601 C.3     1  UNL1        0.0673
      9 C           8.7584   -4.2447    3.7073 C.3     1  UNL1        0.0665
     10 N          10.2284   -4.2447    3.7073 N.ar    1  UNL1       -0.2492
     11 C          10.9248   -5.1499    4.5045 C.ar    1  UNL1        0.0487
     12 C          12.3650   -5.1499    4.5045 C.ar    1  UNL1        0.0829
     13 C          13.1250   -4.1620    3.6345 C.3     1  UNL1       -0.0051
     14 C          12.1372   -3.2950    2.8709 C.3     1  UNL1       -0.0242
     15 C          12.8972   -2.3072    2.0009 C.3     1  UNL1        0.0446
     16 O          11.9745   -1.4972    1.2876 O.3     1  UNL1       -0.3950
     17 N          13.0614   -6.0551    5.3018 N.ar    1  UNL1       -0.1345
     18 N          10.9011   -3.3703    2.9372 N.ar    1  UNL1       -0.0654
     19 H           0.6284    0.6373   -0.5923 H       1  UNL1        0.1183
     20 H           0.6284    0.1052    0.9861 H       1  UNL1        0.1183
     21 H           2.7950    0.8715    0.3656 H       1  UNL1        0.0444
     22 H           2.7950   -0.2833   -0.9457 H       1  UNL1        0.0444
     23 H           2.5884   -2.1158    0.6682 H       1  UNL1        0.0572
     24 H           2.5884   -0.9610    1.9795 H       1  UNL1        0.0572
     25 H           4.4817   -3.1205    1.5530 H       1  UNL1        0.0583
     26 H           4.4817   -1.9657    2.8643 H       1  UNL1        0.0583
     27 H           6.7150   -1.2086    2.1976 H       1  UNL1        0.0583
     28 H           6.7150   -2.3634    0.8863 H       1  UNL1        0.0583
     29 H           8.6084   -2.2133    3.0824 H       1  UNL1        0.0578
     30 H           8.6084   -3.3681    1.7711 H       1  UNL1        0.0578
     31 H           8.4017   -5.2006    3.3850 H       1  UNL1        0.0532
     32 H           8.4017   -4.0458    4.6963 H       1  UNL1        0.0532
     33 H          10.4088   -5.8206    5.0952 H       1  UNL1        0.0845
     34 H          13.7401   -4.6969    2.9414 H       1  UNL1        0.0330
     35 H          13.7401   -3.5421    4.2527 H       1  UNL1        0.0330
     36 H          11.5221   -2.7602    3.5640 H       1  UNL1        0.0291
     37 H          11.5221   -3.9150    2.2528 H       1  UNL1        0.0291
     38 H          13.5124   -2.8421    1.3078 H       1  UNL1        0.0557
     39 H          13.5124   -1.6872    2.6191 H       1  UNL1        0.0557
     40 H          11.4168   -2.0592    0.7272 H       1  UNL1        0.2094
@<TRIPOS>BOND
     1     1     2    1
     2     2     3    1
     3     3     4    1
     4     4     5    1
     5     5     6    1
     6     6     7    1
     7     7     8    1
     8     8     9    1
     9     9    10    1
    10    10    11   ar
    11    11    12   ar
    12    12    13    1
    13    13    14    1
    14    14    15    1
    15    15    16    1
    16    12    17   ar
    17    17    18   ar
    18    10    18   ar
    19     1    19    1
    20     1    20    1
    21     2    21    1
    22     2    22    1
    23     3    23    1
    24     3    24    1
    25     5    25    1
    26     5    26    1
    27     6    27    1
    28     6    28    1
    29     8    29    1
    30     8    30    1
    31     9    31    1
    32     9    32    1
    33    11    33    1
    34    13    34    1
    35    13    35    1
    36    14    36    1
    37    14    37    1
    38    15    38    1
    39    15    39    1
    40    16    40    1
