@<TRIPOS>MOLECULE
*****
 17 16 0 0 0
SMALL
GASTEIGER

@<TRIPOS>ATOM
      1 C           1.0325   -0.0670   -0.0667 C.3     1  UNL1       -0.0653
      2 C           2.5525   -0.0670   -0.0667 C.3     1  UNL1       -0.0559
      3 C           3.0592   -1.3154    0.6370 C.3     1  UNL1       -0.0536
      4 C           4.5792   -1.3154    0.6370 C.3     1  UNL1       -0.0559
      5 C           5.0858   -2.5638    1.3408 C.3     1  UNL1       -0.0653
      6 H           0.6758    0.8118   -0.5621 H       1  UNL1        0.0230
      7 H           0.6758   -0.0774    0.9420 H       1  UNL1        0.0230
      8 H           0.6758   -0.9355   -0.5801 H       1  UNL1        0.0230
      9 H           2.9092    0.8014    0.4467 H       1  UNL1        0.0263
     10 H           2.9092   -0.0567   -1.0755 H       1  UNL1        0.0263
     11 H           2.7025   -2.1838    0.1237 H       1  UNL1        0.0265
     12 H           2.7025   -1.3258    1.6458 H       1  UNL1        0.0265
     13 H           4.9358   -0.4470    1.1504 H       1  UNL1        0.0263
     14 H           4.9358   -1.3050   -0.3717 H       1  UNL1        0.0263
     15 H           4.7292   -2.5742    2.3495 H       1  UNL1        0.0230
     16 H           6.1558   -2.5638    1.3408 H       1  UNL1        0.0230
     17 H           4.7292   -3.4322    0.8274 H       1  UNL1        0.0230
@<TRIPOS>BOND
     1     1     2    1
     2     2     3    1
     3     3     4    1
     4     4     5    1
     5     1     6    1
     6     1     7    1
     7     1     8    1
     8     2     9    1
     9     2    10    1
    10     3    11    1
    11     3    12    1
    12     4    13    1
    13     4    14    1
    14     5    15    1
    15     5    16    1
    16     5    17    1
