@<TRIPOS>MOLECULE
*****
 8 7 0 0 0
SMALL
GASTEIGER

@<TRIPOS>ATOM
      1 O           0.9089   -0.0407    0.0057 O.2     1  UNL1       -0.3002
      2 C           2.1798   -0.0407    0.0057 C.2     1  UNL1        0.1298
      3 C           2.9398    1.2694    0.1336 C.3     1  UNL1        0.0461
      4 S           4.7193    0.9402    0.1015 S.3     1  UNL1       -0.1709
      5 H           2.6958   -0.9303   -0.0811 H       1  UNL1        0.1035
      6 H           2.6813    1.7430    1.0576 H       1  UNL1        0.0448
      7 H           2.6813    1.9127   -0.6814 H       1  UNL1        0.0448
      8 H           5.0478    0.1226    1.1374 H       1  UNL1        0.1020
@<TRIPOS>BOND
     1     1     2    2
     2     2     3    1
     3     3     4    1
     4     2     5    1
     5     3     6    1
     6     3     7    1
     7     4     8    1
