@<TRIPOS>MOLECULE
*****
 34 35 0 0 0
SMALL
GASTEIGER

@<TRIPOS>ATOM
      1 C           1.0040    0.0982    0.0183 C.3     1  UNL1       -0.0038
      2 C           2.5240    0.0982    0.0183 C.3     1  UNL1       -0.0364
      3 C           3.0306   -1.0346    0.8960 C.3     1  UNL1       -0.0260
      4 C           2.5240   -2.3611    0.3537 C.3     1  UNL1        0.0019
      5 N           1.0540   -2.3611    0.3537 N.3     1  UNL1       -0.2997
      6 C           0.5640   -3.6440   -0.1707 C.3     1  UNL1        0.0115
      7 C          -0.9560   -3.6440   -0.1707 C.3     1  UNL1        0.0087
      8 N          -1.4460   -4.9269   -0.6951 N.3     1  UNL1       -0.3136
      9 C          -2.9160   -4.9269   -0.6951 C.3     1  UNL1        0.0087
     10 C           0.5640   -1.2655   -0.4951 C.3     1  UNL1        0.0115
     11 C           4.5506   -1.0346    0.8960 C.3     1  UNL1       -0.0364
     12 C           5.0573   -2.1675    1.7736 C.3     1  UNL1       -0.0038
     13 N           0.5140    1.1938   -0.8305 N.3     1  UNL1       -0.3160
     14 H           0.6473    0.2346    1.0178 H       1  UNL1        0.0424
     15 H           0.6473   -0.8356   -0.3634 H       1  UNL1        0.0424
     16 H           2.8806    1.0320    0.4000 H       1  UNL1        0.0281
     17 H           2.8806   -0.0381   -0.9813 H       1  UNL1        0.0281
     18 H           2.6740   -0.8983    1.8955 H       1  UNL1        0.0314
     19 H           2.8806   -3.1586    0.9715 H       1  UNL1        0.0429
     20 H           2.8806   -2.4975   -0.6459 H       1  UNL1        0.0429
     21 H           0.9206   -4.4415    0.4471 H       1  UNL1        0.0439
     22 H           0.9206   -3.7803   -1.1703 H       1  UNL1        0.0439
     23 H          -1.3127   -2.8465   -0.7886 H       1  UNL1        0.0437
     24 H          -1.3127   -3.5077    0.8288 H       1  UNL1        0.0437
     25 H          -1.1060   -5.6871   -0.1062 H       1  UNL1        0.1220
     26 H          -3.4836   -5.2180    0.1639 H       1  UNL1        0.0437
     27 H          -3.7411   -5.2491   -1.2954 H       1  UNL1        0.0437
     28 H           0.2923   -0.3492   -0.0139 H       1  UNL1        0.0439
     29 H           1.0605   -0.7655   -1.3003 H       1  UNL1        0.0439
     30 H           4.9073   -0.1008    1.2777 H       1  UNL1        0.0281
     31 H           4.9073   -1.1710   -0.1036 H       1  UNL1        0.0281
     32 H           5.3954   -2.0412    2.7809 H       1  UNL1        0.0424
     33 H           5.5599   -3.1114    1.8103 H       1  UNL1        0.0424
     34 H           0.1917    1.0734   -1.7907 H       1  UNL1        0.1219
@<TRIPOS>BOND
     1     1     2    1
     2     2     3    1
     3     3     4    1
     4     4     5    1
     5     5     6    1
     6     6     7    1
     7     7     8    1
     8     8     9    1
     9     9    10    1
    10     5    10    1
    11     3    11    1
    12    11    12    1
    13    12    13    1
    14     1    13    1
    15     1    14    1
    16     1    15    1
    17     2    16    1
    18     2    17    1
    19     3    18    1
    20     4    19    1
    21     4    20    1
    22     6    21    1
    23     6    22    1
    24     7    23    1
    25     7    24    1
    26     8    25    1
    27     9    26    1
    28     9    27    1
    29    10    28    1
    30    10    29    1
    31    11    30    1
    32    11    31    1
    33    12    32    1
    34    12    33    1
    35    13    34    1
