@<TRIPOS>MOLECULE
*****
 20 19 0 0 0
SMALL
GASTEIGER

@<TRIPOS>ATOM
      1 C           1.0140    0.0892    0.0430 C.3     1  UNL1       -0.0653
      2 C           2.5340    0.0892    0.0430 C.3     1  UNL1       -0.0559
      3 C           3.0407    1.4444   -0.4229 C.3     1  UNL1       -0.0533
      4 C           4.5607    1.4444   -0.4229 C.3     1  UNL1       -0.0533
      5 C           5.0673    2.7996   -0.8889 C.3     1  UNL1       -0.0559
      6 C           6.5873    2.7996   -0.8889 C.3     1  UNL1       -0.0653
      7 H           0.6573   -0.8648    0.3710 H       1  UNL1        0.0230
      8 H           0.6573    0.2821   -0.9472 H       1  UNL1        0.0230
      9 H           0.6573    0.8502    0.7052 H       1  UNL1        0.0230
     10 H           2.8907   -0.6719   -0.6191 H       1  UNL1        0.0263
     11 H           2.8907   -0.1038    1.0332 H       1  UNL1        0.0263
     12 H           2.6840    2.2054    0.2392 H       1  UNL1        0.0265
     13 H           2.6840    1.6373   -1.4131 H       1  UNL1        0.0265
     14 H           4.9173    0.6833   -1.0851 H       1  UNL1        0.0265
     15 H           4.9173    1.2514    0.5673 H       1  UNL1        0.0265
     16 H           4.7107    3.5606   -0.2267 H       1  UNL1        0.0263
     17 H           4.7107    2.9925   -1.8791 H       1  UNL1        0.0263
     18 H           6.9440    2.6066    0.1013 H       1  UNL1        0.0230
     19 H           6.9440    3.7536   -1.2169 H       1  UNL1        0.0230
     20 H           6.9440    2.0385   -1.5511 H       1  UNL1        0.0230
@<TRIPOS>BOND
     1     1     2    1
     2     2     3    1
     3     3     4    1
     4     4     5    1
     5     5     6    1
     6     1     7    1
     7     1     8    1
     8     1     9    1
     9     2    10    1
    10     2    11    1
    11     3    12    1
    12     3    13    1
    13     4    14    1
    14     4    15    1
    15     5    16    1
    16     5    17    1
    17     6    18    1
    18     6    19    1
    19     6    20    1
