@<TRIPOS>MOLECULE
*****
 39 39 0 0 0
SMALL
GASTEIGER

@<TRIPOS>ATOM
      1 O           0.9244    0.0649    0.0082 O.2     1  UNL1       -0.2729
      2 C           2.1953    0.0649    0.0082 C.2     1  UNL1        0.2430
      3 C           2.9553    0.0328    1.3242 C.3     1  UNL1        0.1240
      4 O           2.0325    0.0064    2.4032 O.3     1  UNL1       -0.3706
      5 C           2.7425   -0.0236    3.6326 C.3     1  UNL1        0.0483
      6 C           1.7547   -0.0517    4.7876 C.3     1  UNL1       -0.0294
      7 C           2.5147   -0.0839    6.1035 C.3     1  UNL1       -0.0509
      8 C           1.5270   -0.1120    7.2585 C.3     1  UNL1       -0.0509
      9 C           2.2870   -0.1442    8.5745 C.3     1  UNL1       -0.0297
     10 C           1.2993   -0.1723    9.7294 C.3     1  UNL1        0.0442
     11 O           2.0093   -0.2023   10.9588 O.3     1  UNL1       -0.3950
     12 N           2.9303    0.0959   -1.2644 N.am    1  UNL1       -0.2836
     13 C           4.4003    0.0959   -1.2644 C.ar    1  UNL1        0.0335
     14 C           5.1204    0.1264   -2.5113 C.ar    1  UNL1       -0.0405
     15 C           6.5606    0.1264   -2.5113 C.ar    1  UNL1       -0.0600
     16 C           7.2807    0.1568   -3.7582 C.ar    1  UNL1       -0.0616
     17 C           8.7209    0.1568   -3.7582 C.ar    1  UNL1       -0.0600
     18 C           5.1204    0.0655   -0.0176 C.ar    1  UNL1       -0.0405
     19 H           3.5704    0.9048    1.4022 H       1  UNL1        0.0657
     20 H           3.5704   -0.8420    1.3596 H       1  UNL1        0.0657
     21 H           3.3577    0.8484    3.7106 H       1  UNL1        0.0560
     22 H           3.3577   -0.8983    3.6679 H       1  UNL1        0.0560
     23 H           1.1396   -0.9238    4.7096 H       1  UNL1        0.0287
     24 H           1.1396    0.8230    4.7522 H       1  UNL1        0.0287
     25 H           3.1299    0.7881    6.1815 H       1  UNL1        0.0266
     26 H           3.1299   -0.9586    6.1389 H       1  UNL1        0.0266
     27 H           0.9118   -0.9841    7.1805 H       1  UNL1        0.0266
     28 H           0.9118    0.7627    7.2231 H       1  UNL1        0.0266
     29 H           2.9022    0.7278    8.6524 H       1  UNL1        0.0287
     30 H           2.9022   -1.0189    8.6098 H       1  UNL1        0.0287
     31 H           0.6841   -1.0444    9.6515 H       1  UNL1        0.0557
     32 H           0.6841    0.7024    9.6941 H       1  UNL1        0.0557
     33 H           2.5669   -0.9954   10.9909 H       1  UNL1        0.2094
     34 H           2.4380    0.1167   -2.1168 H       1  UNL1        0.1549
     35 H           4.6044    0.1482   -3.4048 H       1  UNL1        0.0636
     36 H           7.0766    0.1046   -1.6178 H       1  UNL1        0.0618
     37 H           6.7647    0.1786   -4.6517 H       1  UNL1        0.0618
     38 H           9.6705    0.1667   -4.1622 H       1  UNL1        0.0618
     39 H           4.9955    0.0405    1.0066 H       1  UNL1        0.0636
@<TRIPOS>BOND
     1     1     2    2
     2     2     3    1
     3     3     4    1
     4     4     5    1
     5     5     6    1
     6     6     7    1
     7     7     8    1
     8     8     9    1
     9     9    10    1
    10    10    11    1
    11     2    12   am
    12    12    13    1
    13    13    14   ar
    14    14    15   ar
    15    15    16   ar
    16    16    17   ar
    17    17    18   ar
    18    13    18   ar
    19     3    19    1
    20     3    20    1
    21     5    21    1
    22     5    22    1
    23     6    23    1
    24     6    24    1
    25     7    25    1
    26     7    26    1
    27     8    27    1
    28     8    28    1
    29     9    29    1
    30     9    30    1
    31    10    31    1
    32    10    32    1
    33    11    33    1
    34    12    34    1
    35    14    35    1
    36    15    36    1
    37    16    37    1
    38    17    38    1
    39    18    39    1
