@<TRIPOS>MOLECULE
*****
 40 41 0 0 0
SMALL
GASTEIGER

@<TRIPOS>ATOM
      1 C           0.9264   -0.0677   -0.0001 C.3     1  UNL1       -0.0130
      2 N           2.3964   -0.0677   -0.0001 N.3     1  UNL1       -0.3081
      3 C           2.8864   -1.4303    0.2528 C.3     1  UNL1       -0.0130
      4 C           2.8864    0.3946   -1.3066 C.3     1  UNL1        0.0012
      5 C           4.4064    0.3946   -1.3066 C.3     1  UNL1       -0.0254
      6 C           4.9130    0.8727   -2.6576 C.3     1  UNL1       -0.0331
      7 C           6.4330    0.8727   -2.6576 C.3     1  UNL1        0.0153
      8 N           6.9230    1.3350   -3.9642 N.am    1  UNL1       -0.2975
      9 C           5.9678    1.7077   -5.0175 C.2     1  UNL1        0.2466
     10 O           6.3914    2.1074   -6.1471 O.2     1  UNL1       -0.2700
     11 C           4.4734    1.6151   -4.7557 C.ar    1  UNL1        0.0369
     12 C           3.5375    1.9802   -5.7876 C.ar    1  UNL1       -0.0496
     13 C           2.1215    1.8924   -5.5395 C.ar    1  UNL1       -0.0610
     14 C           1.1856    2.2576   -6.5715 C.ar    1  UNL1       -0.0617
     15 C          -0.2303    2.1698   -6.3234 C.ar    1  UNL1       -0.0610
     16 C           3.9933    1.1621   -3.4756 C.ar    1  UNL1       -0.0496
     17 C           8.3683    1.4246   -4.2174 C.3     1  UNL1        0.0153
     18 C           4.9130   -1.0144   -1.0451 C.3     1  UNL1       -0.0331
     19 H           0.5697   -0.4042    0.9509 H       1  UNL1        0.0391
     20 H           0.5697   -0.7230   -0.7670 H       1  UNL1        0.0391
     21 H           0.5697    0.9242   -0.1842 H       1  UNL1        0.0391
     22 H           2.5297   -1.7668    1.2038 H       1  UNL1        0.0391
     23 H           3.9564   -1.4303    0.2528 H       1  UNL1        0.0391
     24 H           2.5297   -2.0857   -0.5141 H       1  UNL1        0.0391
     25 H           2.5297    1.3865   -1.4907 H       1  UNL1        0.0429
     26 H           2.5297   -0.2607   -2.0736 H       1  UNL1        0.0429
     27 H           4.7630    1.0500   -0.5397 H       1  UNL1        0.0314
     28 H           4.5564    1.8646   -2.8417 H       1  UNL1        0.0283
     29 H           4.5564    0.2173   -3.4246 H       1  UNL1        0.0283
     30 H           6.7897   -0.1192   -2.4736 H       1  UNL1        0.0465
     31 H           6.7897    1.5280   -1.8907 H       1  UNL1        0.0465
     32 H           3.8815    2.3048   -6.7049 H       1  UNL1        0.0625
     33 H           1.7775    1.5679   -4.6223 H       1  UNL1        0.0618
     34 H           1.5296    2.5821   -7.4887 H       1  UNL1        0.0618
     35 H          -1.2378    2.2444   -6.5343 H       1  UNL1        0.0618
     36 H           4.3033    0.8338   -2.5476 H       1  UNL1        0.0625
     37 H           8.9643    2.2546   -3.8998 H       1  UNL1        0.0465
     38 H           9.1182    1.2486   -4.9600 H       1  UNL1        0.0465
     39 H           5.2296   -1.2562   -0.0521 H       1  UNL1        0.0283
     40 H           4.4154   -1.9532   -1.1712 H       1  UNL1        0.0283
@<TRIPOS>BOND
     1     1     2    1
     2     2     3    1
     3     2     4    1
     4     4     5    1
     5     5     6    1
     6     6     7    1
     7     7     8    1
     8     8     9   am
     9     9    10    2
    10     9    11    1
    11    11    12   ar
    12    12    13   ar
    13    13    14   ar
    14    14    15   ar
    15    15    16   ar
    16    11    16   ar
    17     8    17    1
    18    17    18    1
    19     5    18    1
    20     1    19    1
    21     1    20    1
    22     1    21    1
    23     3    22    1
    24     3    23    1
    25     3    24    1
    26     4    25    1
    27     4    26    1
    28     5    27    1
    29     6    28    1
    30     6    29    1
    31     7    30    1
    32     7    31    1
    33    12    32    1
    34    13    33    1
    35    14    34    1
    36    15    35    1
    37    16    36    1
    38    17    37    1
    39    17    38    1
    40    18    39    1
    41    18    40    1
