@<TRIPOS>MOLECULE
*****
 41 41 0 0 0
SMALL
GASTEIGER

@<TRIPOS>ATOM
      1 C           1.0483    0.0648    0.0590 C.3     1  UNL1       -0.0416
      2 C           2.5683    0.0648    0.0590 C.3     1  UNL1        0.0449
      3 O           3.0416   -1.1241   -0.5566 O.3     1  UNL1       -0.3778
      4 C           4.4616   -1.1241   -0.5566 C.3     1  UNL1        0.0710
      5 C           4.9683   -2.3968   -1.2154 C.3     1  UNL1        0.0711
      6 O           6.3883   -2.3968   -1.2154 O.3     1  UNL1       -0.3752
      7 C           6.8616   -3.5857   -1.8310 C.3     1  UNL1        0.0711
      8 C           8.3816   -3.5857   -1.8310 C.3     1  UNL1        0.0711
      9 O           8.8549   -4.7746   -2.4465 O.3     1  UNL1       -0.3742
     10 C          10.2749   -4.7746   -2.4465 C.3     1  UNL1        0.0818
     11 C          10.7816   -6.0472   -3.1054 C.3     1  UNL1        0.1128
     12 O          12.2016   -6.0472   -3.1054 O.3     1  UNL1       -0.4896
     13 C          12.9116   -7.1393   -3.6707 C.ar    1  UNL1        0.1241
     14 C          14.3518   -7.1393   -3.6707 C.ar    1  UNL1       -0.0197
     15 C          15.0719   -8.2469   -4.2442 C.ar    1  UNL1       -0.0549
     16 C          16.5121   -8.2469   -4.2442 C.ar    1  UNL1       -0.0199
     17 C          17.2322   -9.3545   -4.8176 C.ar    1  UNL1        0.1203
     18 O          18.6522   -9.3545   -4.8176 O.3     1  UNL1       -0.5066
     19 C          12.1915   -8.2469   -4.2442 C.ar    1  UNL1        0.0215
     20 H           0.6916    0.9606    0.5228 H       1  UNL1        0.0252
     21 H           0.6916   -0.7848    0.6029 H       1  UNL1        0.0252
     22 H           0.6916    0.0185   -0.9488 H       1  UNL1        0.0252
     23 H           2.9249    0.1110    1.0667 H       1  UNL1        0.0557
     24 H           2.9249    0.9144   -0.4850 H       1  UNL1        0.0557
     25 H           4.8183   -1.0779    0.4512 H       1  UNL1        0.0583
     26 H           4.8183   -0.2745   -1.1005 H       1  UNL1        0.0583
     27 H           4.6116   -2.4430   -2.2232 H       1  UNL1        0.0583
     28 H           4.6116   -3.2464   -0.6715 H       1  UNL1        0.0583
     29 H           6.5049   -3.6319   -2.8387 H       1  UNL1        0.0583
     30 H           6.5049   -4.4353   -1.2870 H       1  UNL1        0.0583
     31 H           8.7383   -3.5394   -0.8232 H       1  UNL1        0.0583
     32 H           8.7383   -2.7361   -2.3749 H       1  UNL1        0.0583
     33 H          10.6316   -4.7283   -1.4387 H       1  UNL1        0.0594
     34 H          10.6316   -3.9250   -2.9904 H       1  UNL1        0.0594
     35 H          10.4249   -6.0935   -4.1131 H       1  UNL1        0.0720
     36 H          10.4249   -6.8968   -2.5614 H       1  UNL1        0.0720
     37 H          14.8678   -6.3456   -3.2598 H       1  UNL1        0.0654
     38 H          14.5559   -9.0406   -4.6551 H       1  UNL1        0.0620
     39 H          17.0281   -7.4532   -3.8333 H       1  UNL1        0.0654
     40 H          19.1207  -10.0751   -5.1907 H       1  UNL1        0.2921
     41 H          11.2419   -8.6057   -4.4300 H       1  UNL1        0.0691
@<TRIPOS>BOND
     1     1     2    1
     2     2     3    1
     3     3     4    1
     4     4     5    1
     5     5     6    1
     6     6     7    1
     7     7     8    1
     8     8     9    1
     9     9    10    1
    10    10    11    1
    11    11    12    1
    12    12    13    1
    13    13    14   ar
    14    14    15   ar
    15    15    16   ar
    16    16    17   ar
    17    17    18    1
    18    17    19   ar
    19    13    19   ar
    20     1    20    1
    21     1    21    1
    22     1    22    1
    23     2    23    1
    24     2    24    1
    25     4    25    1
    26     4    26    1
    27     5    27    1
    28     5    28    1
    29     7    29    1
    30     7    30    1
    31     8    31    1
    32     8    32    1
    33    10    33    1
    34    10    34    1
    35    11    35    1
    36    11    36    1
    37    14    37    1
    38    15    38    1
    39    16    39    1
    40    18    40    1
    41    19    41    1
