@<TRIPOS>MOLECULE
*****
 70 72 0 0 0
SMALL
GASTEIGER

@<TRIPOS>ATOM
      1 C           1.0437    0.0709    0.0554 C.3     1  UNL1       -0.0652
      2 C           2.5637    0.0709    0.0554 C.3     1  UNL1       -0.0545
      3 C           3.0703   -0.6142   -1.2033 C.3     1  UNL1       -0.0373
      4 C           4.5903   -0.6142   -1.2033 C.3     1  UNL1        0.0165
      5 N           5.0803   -1.2767   -2.4207 N.am    1  UNL1       -0.2811
      6 C           4.1251   -1.8108   -3.4021 C.3     1  UNL1        0.0412
      7 C           2.7066   -1.5497   -2.9223 C.ar    1  UNL1       -0.0301
      8 C           1.5864   -1.9824   -3.7174 C.ar    1  UNL1       -0.0571
      9 C           0.2424   -1.7350   -3.2629 C.ar    1  UNL1       -0.0615
     10 C          -0.8778   -2.1678   -4.0580 C.ar    1  UNL1       -0.0617
     11 C          -2.2218   -1.9204   -3.6035 C.ar    1  UNL1       -0.0615
     12 C           2.4827   -0.8696   -1.6727 C.ar    1  UNL1       -0.0571
     13 C           6.5256   -1.4051   -2.6566 C.2     1  UNL1        0.3067
     14 O           7.3514   -0.9433   -1.8081 O.2     1  UNL1       -0.2523
     15 N           7.0156   -2.0676   -3.8739 N.am    1  UNL1       -0.2693
     16 C           8.4608   -2.1960   -4.1099 C.ar    1  UNL1        0.0350
     17 C           8.9409   -2.8451   -5.3025 C.ar    1  UNL1       -0.0370
     18 C          10.3568   -2.9709   -5.5337 C.ar    1  UNL1       -0.0182
     19 C          10.8369   -3.6200   -6.7263 C.ar    1  UNL1        0.1206
     20 O           9.9141   -4.1359   -7.6743 O.3     1  UNL1       -0.4919
     21 C           8.5180   -4.0119   -7.4464 C.3     1  UNL1        0.0913
     22 C           7.7580   -4.6411   -8.6026 C.3     1  UNL1        0.0010
     23 C           6.2636   -4.5083   -8.3587 C.3     1  UNL1        0.0463
     24 N           5.5286   -5.1169   -9.4768 N.ar    1  UNL1       -0.2513
     25 C           4.1358   -5.1169   -9.4768 C.ar    1  UNL1        0.0486
     26 C           3.4157   -5.7131  -10.5724 C.ar    1  UNL1        0.0829
     27 C           4.1757   -6.3424  -11.7286 C.3     1  UNL1       -0.0060
     28 C           5.6701   -6.2096  -11.4846 C.3     1  UNL1       -0.0351
     29 C           6.4301   -6.8389  -12.6408 C.3     1  UNL1       -0.0066
     30 N           7.8754   -6.7105  -12.4049 N.3     1  UNL1       -0.3300
     31 N           2.0229   -5.7131  -10.5724 N.ar    1  UNL1       -0.1345
     32 N           6.2013   -5.6739  -10.5003 N.ar    1  UNL1       -0.0655
     33 C          12.2528   -3.7458   -6.9575 C.ar    1  UNL1       -0.0182
     34 C           9.3967   -1.6727   -3.1484 C.ar    1  UNL1       -0.0370
     35 H           0.6870    0.5531    0.9415 H       1  UNL1        0.0230
     36 H           0.6870   -0.9376    0.0300 H       1  UNL1        0.0230
     37 H           0.6870    0.5971   -0.8053 H       1  UNL1        0.0230
     38 H           2.9203   -0.4554    0.9161 H       1  UNL1        0.0263
     39 H           2.9203    1.0794    0.0808 H       1  UNL1        0.0263
     40 H           2.7137   -0.0879   -2.0640 H       1  UNL1        0.0280
     41 H           2.7137   -1.6226   -1.2288 H       1  UNL1        0.0280
     42 H           4.9470   -1.1404   -0.3427 H       1  UNL1        0.0465
     43 H           4.9470    0.3943   -1.1779 H       1  UNL1        0.0465
     44 H           4.2767   -2.8644   -3.5104 H       1  UNL1        0.0514
     45 H           4.2767   -1.3297   -4.3457 H       1  UNL1        0.0514
     46 H           1.7468   -2.4697   -4.6129 H       1  UNL1        0.0621
     47 H           0.0820   -1.2477   -2.3675 H       1  UNL1        0.0618
     48 H          -0.7174   -2.6551   -4.9534 H       1  UNL1        0.0618
     49 H          -3.2532   -1.9375   -3.6350 H       1  UNL1        0.0618
     50 H           2.9673   -0.4341   -0.8724 H       1  UNL1        0.0621
     51 H           6.3758   -2.4253   -4.5312 H       1  UNL1        0.1564
     52 H           8.2702   -3.2200   -5.9915 H       1  UNL1        0.0637
     53 H          11.0274   -2.5959   -4.8447 H       1  UNL1        0.0655
     54 H           8.2595   -2.9763   -7.3712 H       1  UNL1        0.0697
     55 H           8.2595   -4.5110   -6.5360 H       1  UNL1        0.0697
     56 H           8.0165   -5.6767   -8.6778 H       1  UNL1        0.0316
     57 H           8.0165   -4.1420   -9.5131 H       1  UNL1        0.0316
     58 H           6.0051   -3.4728   -8.2835 H       1  UNL1        0.0510
     59 H           6.0051   -5.0075   -7.4482 H       1  UNL1        0.0510
     60 H           3.6198   -4.6897   -8.6918 H       1  UNL1        0.0845
     61 H           3.9172   -5.8432  -12.6390 H       1  UNL1        0.0330
     62 H           3.9172   -7.3780  -11.8038 H       1  UNL1        0.0330
     63 H           5.9286   -6.7088  -10.5742 H       1  UNL1        0.0281
     64 H           5.9286   -5.1740  -11.4094 H       1  UNL1        0.0281
     65 H           6.1716   -6.3397  -13.5513 H       1  UNL1        0.0422
     66 H           6.1716   -7.8744  -12.7160 H       1  UNL1        0.0422
     67 H           8.1218   -5.7233  -12.3332 H       1  UNL1        0.1182
     68 H           8.3854   -7.1327  -13.1808 H       1  UNL1        0.1182
     69 H          13.1126   -4.0186   -7.4588 H       1  UNL1        0.0655
     70 H           9.4611   -1.1804   -2.2437 H       1  UNL1        0.0637
@<TRIPOS>BOND
     1     1     2    1
     2     2     3    1
     3     3     4    1
     4     4     5    1
     5     5     6    1
     6     6     7    1
     7     7     8   ar
     8     8     9   ar
     9     9    10   ar
    10    10    11   ar
    11    11    12   ar
    12     7    12   ar
    13     5    13   am
    14    13    14    2
    15    13    15   am
    16    15    16    1
    17    16    17   ar
    18    17    18   ar
    19    18    19   ar
    20    19    20    1
    21    20    21    1
    22    21    22    1
    23    22    23    1
    24    23    24    1
    25    24    25   ar
    26    25    26   ar
    27    26    27    1
    28    27    28    1
    29    28    29    1
    30    29    30    1
    31    26    31   ar
    32    31    32   ar
    33    24    32   ar
    34    19    33   ar
    35    33    34   ar
    36    16    34   ar
    37     1    35    1
    38     1    36    1
    39     1    37    1
    40     2    38    1
    41     2    39    1
    42     3    40    1
    43     3    41    1
    44     4    42    1
    45     4    43    1
    46     6    44    1
    47     6    45    1
    48     8    46    1
    49     9    47    1
    50    10    48    1
    51    11    49    1
    52    12    50    1
    53    15    51    1
    54    17    52    1
    55    18    53    1
    56    21    54    1
    57    21    55    1
    58    22    56    1
    59    22    57    1
    60    23    58    1
    61    23    59    1
    62    25    60    1
    63    27    61    1
    64    27    62    1
    65    28    63    1
    66    28    64    1
    67    29    65    1
    68    29    66    1
    69    30    67    1
    70    30    68    1
    71    33    69    1
    72    34    70    1
