@<TRIPOS>MOLECULE
*****
 27 26 0 0 0
SMALL
GASTEIGER

@<TRIPOS>ATOM
      1 N           1.0743   -0.0469   -0.0478 N.3     1  UNL1       -0.3288
      2 C           2.5443   -0.0469   -0.0478 C.3     1  UNL1        0.0056
      3 C           3.0510   -0.4136    1.3376 C.3     1  UNL1        0.0083
      4 N           4.5210   -0.4136    1.3376 N.3     1  UNL1       -0.3126
      5 C           5.0110   -0.7683    2.6773 C.3     1  UNL1        0.0194
      6 C           6.5310   -0.7683    2.6773 C.3     1  UNL1        0.0602
      7 O           7.0043   -1.1109    3.9715 O.3     1  UNL1       -0.3773
      8 C           8.4243   -1.1109    3.9715 C.3     1  UNL1        0.0600
      9 C           8.9309   -1.4777    5.3569 C.3     1  UNL1        0.0166
     10 N          10.4009   -1.4777    5.3569 N.3     1  UNL1       -0.3279
     11 H           0.7343    0.1993   -0.9774 H       1  UNL1        0.1183
     12 H           0.7343    0.6352    0.6302 H       1  UNL1        0.1183
     13 H           2.9010    0.9268   -0.3118 H       1  UNL1        0.0434
     14 H           2.9010   -0.7623   -0.7590 H       1  UNL1        0.0434
     15 H           2.6943   -1.3873    1.6016 H       1  UNL1        0.0436
     16 H           2.6943    0.3018    2.0487 H       1  UNL1        0.0436
     17 H           4.8610    0.5145    1.0859 H       1  UNL1        0.1221
     18 H           4.6543   -1.7420    2.9413 H       1  UNL1        0.0446
     19 H           4.6543   -0.0528    3.3885 H       1  UNL1        0.0446
     20 H           6.8876    0.2053    2.4133 H       1  UNL1        0.0572
     21 H           6.8876   -1.4838    1.9661 H       1  UNL1        0.0572
     22 H           8.7809   -0.1373    3.7075 H       1  UNL1        0.0572
     23 H           8.7810   -1.8264    3.2603 H       1  UNL1        0.0572
     24 H           8.5743   -2.4513    5.6209 H       1  UNL1        0.0444
     25 H           8.5743   -0.7622    6.0681 H       1  UNL1        0.0444
     26 H          10.7409   -2.1597    4.6789 H       1  UNL1        0.1183
     27 H          10.7409   -1.7238    6.2865 H       1  UNL1        0.1183
@<TRIPOS>BOND
     1     1     2    1
     2     2     3    1
     3     3     4    1
     4     4     5    1
     5     5     6    1
     6     6     7    1
     7     7     8    1
     8     8     9    1
     9     9    10    1
    10     1    11    1
    11     1    12    1
    12     2    13    1
    13     2    14    1
    14     3    15    1
    15     3    16    1
    16     4    17    1
    17     5    18    1
    18     5    19    1
    19     6    20    1
    20     6    21    1
    21     8    22    1
    22     8    23    1
    23     9    24    1
    24     9    25    1
    25    10    26    1
    26    10    27    1
