@<TRIPOS>MOLECULE
*****
 31 32 0 0 0
SMALL
GASTEIGER

@<TRIPOS>ATOM
      1 C           0.9392   -0.0680    0.0409 C.3     1  UNL1       -0.0027
      2 C           2.4592   -0.0680    0.0409 C.3     1  UNL1       -0.0247
      3 C           2.9658   -1.0335   -1.0181 C.3     1  UNL1        0.0128
      4 N           2.4758   -0.6134   -2.3388 N.3     1  UNL1       -0.2969
      5 C           1.0058   -0.6134   -2.3388 C.3     1  UNL1        0.0118
      6 C           0.4992   -0.1790   -3.7045 C.3     1  UNL1        0.0087
      7 N          -0.9708   -0.1790   -3.7045 N.3     1  UNL1       -0.3136
      8 C          -1.4608    0.2411   -5.0252 C.3     1  UNL1        0.0087
      9 C           2.9658   -1.5471   -3.3630 C.3     1  UNL1        0.0118
     10 C           4.4858   -1.0335   -1.0181 C.3     1  UNL1       -0.0247
     11 C           4.9925   -1.9990   -2.0772 C.3     1  UNL1       -0.0027
     12 N           0.4492    0.8657    1.0651 N.3     1  UNL1       -0.3159
     13 H           0.5825   -1.0535    0.2567 H       1  UNL1        0.0424
     14 H           0.5825    0.2378   -0.9204 H       1  UNL1        0.0424
     15 H           2.8159   -0.3738    1.0022 H       1  UNL1        0.0293
     16 H           2.8159    0.9174   -0.1749 H       1  UNL1        0.0293
     17 H           2.6092   -2.0190   -0.8023 H       1  UNL1        0.0463
     18 H           0.6492    0.0662   -1.5933 H       1  UNL1        0.0439
     19 H           0.6492   -1.5988   -2.1230 H       1  UNL1        0.0439
     20 H           0.8558   -0.8586   -4.4500 H       1  UNL1        0.0437
     21 H           0.8558    0.8064   -3.9203 H       1  UNL1        0.0437
     22 H          -1.3108    0.4689   -2.9938 H       1  UNL1        0.1220
     23 H          -1.5976    1.2717   -5.2784 H       1  UNL1        0.0437
     24 H          -2.2312    0.0105   -5.7311 H       1  UNL1        0.0437
     25 H           3.8466   -1.2714   -3.9045 H       1  UNL1        0.0439
     26 H           3.2805   -2.5636   -3.2505 H       1  UNL1        0.0439
     27 H           4.8425   -1.3393   -0.0568 H       1  UNL1        0.0293
     28 H           4.8425   -0.0481   -1.2340 H       1  UNL1        0.0293
     29 H           5.3306   -2.9929   -1.8706 H       1  UNL1        0.0424
     30 H           5.4952   -2.1111   -3.0151 H       1  UNL1        0.0424
     31 H           0.1269    1.8132    0.8682 H       1  UNL1        0.1219
@<TRIPOS>BOND
     1     1     2    1
     2     2     3    1
     3     3     4    1
     4     4     5    1
     5     5     6    1
     6     6     7    1
     7     7     8    1
     8     8     9    1
     9     4     9    1
    10     3    10    1
    11    10    11    1
    12    11    12    1
    13     1    12    1
    14     1    13    1
    15     1    14    1
    16     2    15    1
    17     2    16    1
    18     3    17    1
    19     5    18    1
    20     5    19    1
    21     6    20    1
    22     6    21    1
    23     7    22    1
    24     8    23    1
    25     8    24    1
    26     9    25    1
    27     9    26    1
    28    10    27    1
    29    10    28    1
    30    11    29    1
    31    11    30    1
    32    12    31    1
