@<TRIPOS>MOLECULE
*****
 24 23 0 0 0
SMALL
GASTEIGER

@<TRIPOS>ATOM
      1 C           1.0697   -0.0396    0.0598 C.3     1  UNL1        0.0121
      2 C           2.5897   -0.0396    0.0598 C.2     1  UNL1        0.2100
      3 O           3.2251    0.3253   -0.9786 O.2     1  UNL1       -0.2761
      4 N           3.3247   -0.4617    1.2608 N.am    1  UNL1       -0.3133
      5 C           4.7947   -0.4617    1.2608 C.3     1  UNL1        0.0350
      6 C           5.3014   -0.9369    2.6128 C.3     1  UNL1        0.0632
      7 O           6.7214   -0.9369    2.6128 O.3     1  UNL1       -0.3770
      8 C           7.1947   -1.3808    3.8759 C.3     1  UNL1        0.0600
      9 C           8.7147   -1.3808    3.8759 C.3     1  UNL1        0.0166
     10 N           9.2047   -1.8404    5.1834 N.3     1  UNL1       -0.3279
     11 H           0.7130    0.2949   -0.8920 H       1  UNL1        0.0322
     12 H           0.7130    0.6174    0.8253 H       1  UNL1        0.0322
     13 H           0.7130   -1.0311    0.2460 H       1  UNL1        0.0322
     14 H           2.8324   -0.7444    2.0652 H       1  UNL1        0.1488
     15 H           5.1514    0.5298    1.0746 H       1  UNL1        0.0484
     16 H           5.1514   -1.1187    0.4953 H       1  UNL1        0.0484
     17 H           4.9447   -1.9284    2.7990 H       1  UNL1        0.0575
     18 H           4.9447   -0.2799    3.3784 H       1  UNL1        0.0575
     19 H           6.8380   -2.3723    4.0620 H       1  UNL1        0.0572
     20 H           6.8380   -0.7239    4.6414 H       1  UNL1        0.0572
     21 H           9.0714   -0.3894    3.6897 H       1  UNL1        0.0444
     22 H           9.0714   -2.0378    3.1103 H       1  UNL1        0.0444
     23 H           8.8647   -1.2141    5.9132 H       1  UNL1        0.1183
     24 H          10.2247   -1.8404    5.1834 H       1  UNL1        0.1183
@<TRIPOS>BOND
     1     1     2    1
     2     2     3    2
     3     2     4   am
     4     4     5    1
     5     5     6    1
     6     6     7    1
     7     7     8    1
     8     8     9    1
     9     9    10    1
    10     1    11    1
    11     1    12    1
    12     1    13    1
    13     4    14    1
    14     5    15    1
    15     5    16    1
    16     6    17    1
    17     6    18    1
    18     8    19    1
    19     8    20    1
    20     9    21    1
    21     9    22    1
    22    10    23    1
    23    10    24    1
