@<TRIPOS>MOLECULE
*****
 32 33 0 0 0
SMALL
GASTEIGER

@<TRIPOS>ATOM
      1 C           0.9292    0.0692    0.0138 C.3     1  UNL1       -0.0308
      2 C           2.4492    0.0692    0.0138 C.3     1  UNL1        0.1117
      3 F           2.8925   -1.0874    0.4980 F       1  UNL1       -0.2421
      4 C           2.9558    0.2509   -1.4077 C.3     1  UNL1       -0.0032
      5 C           4.4758    0.2509   -1.4077 C.3     1  UNL1        0.0178
      6 N           4.9658    0.4266   -2.7825 N.am    1  UNL1       -0.2973
      7 C           4.0106    0.5683   -3.8908 C.2     1  UNL1        0.2466
      8 O           4.4342    0.7202   -5.0793 O.2     1  UNL1       -0.2700
      9 C           2.5162    0.5330   -3.6153 C.ar    1  UNL1        0.0369
     10 C           1.5803    0.6718   -4.7011 C.ar    1  UNL1       -0.0496
     11 C           0.1643    0.6385   -4.4400 C.ar    1  UNL1       -0.0610
     12 C          -0.7715    0.7772   -5.5259 C.ar    1  UNL1       -0.0617
     13 C          -2.1875    0.7439   -5.2648 C.ar    1  UNL1       -0.0610
     14 C           2.0361    0.3609   -2.2684 C.ar    1  UNL1       -0.0496
     15 C           6.4111    0.4607   -3.0489 C.3     1  UNL1        0.0178
     16 C           2.9559    1.2095    0.8819 C.3     1  UNL1       -0.0032
     17 H           0.5725   -0.7334   -0.5973 H       1  UNL1        0.0260
     18 H           0.5725    0.9998   -0.3758 H       1  UNL1        0.0260
     19 H           0.5725   -0.0586    1.0145 H       1  UNL1        0.0260
     20 H           2.5992    1.1815   -1.7973 H       1  UNL1        0.0311
     21 H           2.5992   -0.5517   -2.0188 H       1  UNL1        0.0311
     22 H           4.8325   -0.6796   -1.0181 H       1  UNL1        0.0465
     23 H           4.8325    1.0536   -0.7966 H       1  UNL1        0.0465
     24 H           1.9243    0.7952   -5.6662 H       1  UNL1        0.0625
     25 H          -0.1797    0.5151   -3.4749 H       1  UNL1        0.0618
     26 H          -0.4276    0.9006   -6.4910 H       1  UNL1        0.0618
     27 H          -3.1949    0.7722   -5.4868 H       1  UNL1        0.0618
     28 H           2.3461    0.2361   -1.2920 H       1  UNL1        0.0625
     29 H           6.8887    1.2670   -3.5653 H       1  UNL1        0.0465
     30 H           7.2379   -0.1451   -3.3561 H       1  UNL1        0.0465
     31 H           2.3951    2.1208    0.8886 H       1  UNL1        0.0311
     32 H           3.1205    1.2419    1.9386 H       1  UNL1        0.0311
@<TRIPOS>BOND
     1     1     2    1
     2     2     3    1
     3     2     4    1
     4     4     5    1
     5     5     6    1
     6     6     7   am
     7     7     8    2
     8     7     9    1
     9     9    10   ar
    10    10    11   ar
    11    11    12   ar
    12    12    13   ar
    13    13    14   ar
    14     9    14   ar
    15     6    15    1
    16    15    16    1
    17     2    16    1
    18     1    17    1
    19     1    18    1
    20     1    19    1
    21     4    20    1
    22     4    21    1
    23     5    22    1
    24     5    23    1
    25    10    24    1
    26    11    25    1
    27    12    26    1
    28    13    27    1
    29    14    28    1
    30    15    29    1
    31    15    30    1
    32    16    31    1
    33    16    32    1
