@<TRIPOS>MOLECULE
*****
 57 57 0 0 0
SMALL
GASTEIGER

@<TRIPOS>ATOM
      1 N           1.0725   -0.0688    0.0005 N.3     1  UNL1       -0.3279
      2 C           2.5425   -0.0688    0.0005 C.3     1  UNL1        0.0166
      3 C           3.0492    1.1369   -0.7741 C.3     1  UNL1        0.0600
      4 O           4.4692    1.1369   -0.7741 O.3     1  UNL1       -0.3763
      5 C           4.9425    2.2633   -1.4977 C.3     1  UNL1        0.0711
      6 C           6.4625    2.2633   -1.4977 C.3     1  UNL1        0.0711
      7 O           6.9359    3.3897   -2.2213 O.3     1  UNL1       -0.3752
      8 C           8.3559    3.3897   -2.2213 C.3     1  UNL1        0.0711
      9 C           8.8625    4.5954   -2.9959 C.3     1  UNL1        0.0711
     10 O          10.2825    4.5954   -2.9959 O.3     1  UNL1       -0.3752
     11 C          10.7558    5.7218   -3.7195 C.3     1  UNL1        0.0711
     12 C          12.2758    5.7218   -3.7195 C.3     1  UNL1        0.0711
     13 O          12.7492    6.8481   -4.4431 O.3     1  UNL1       -0.3757
     14 C          14.1692    6.8481   -4.4431 C.3     1  UNL1        0.0673
     15 C          14.6758    8.0539   -5.2177 C.3     1  UNL1        0.0665
     16 N          16.1458    8.0539   -5.2177 N.ar    1  UNL1       -0.2492
     17 C          16.8422    9.0687   -5.8696 C.ar    1  UNL1        0.0487
     18 C          18.2824    9.0687   -5.8696 C.ar    1  UNL1        0.0828
     19 C          19.0424    7.9612   -5.1581 C.3     1  UNL1       -0.0071
     20 C          18.0547    6.9892   -4.5337 C.3     1  UNL1       -0.0455
     21 C          18.8147    5.8816   -3.8222 C.3     1  UNL1       -0.0294
     22 C          17.8270    4.9096   -3.1978 C.3     1  UNL1        0.0442
     23 O          18.5370    3.8750   -2.5331 O.3     1  UNL1       -0.3950
     24 N          18.9789   10.0836   -6.5216 N.ar    1  UNL1       -0.1345
     25 N          16.8186    7.0735   -4.5879 N.ar    1  UNL1       -0.0654
     26 H           0.7325   -0.8779    0.5203 H       1  UNL1        0.1183
     27 H           0.7325   -0.1144   -0.9601 H       1  UNL1        0.1183
     28 H           2.8992   -0.9654   -0.4619 H       1  UNL1        0.0444
     29 H           2.8992   -0.0210    1.0081 H       1  UNL1        0.0444
     30 H           2.6925    2.0335   -0.3117 H       1  UNL1        0.0572
     31 H           2.6925    1.0891   -1.7818 H       1  UNL1        0.0572
     32 H           4.5859    3.1598   -1.0353 H       1  UNL1        0.0583
     33 H           4.5859    2.2154   -2.5054 H       1  UNL1        0.0583
     34 H           6.8192    1.3667   -1.9601 H       1  UNL1        0.0583
     35 H           6.8192    2.3111   -0.4900 H       1  UNL1        0.0583
     36 H           8.7125    2.4931   -2.6837 H       1  UNL1        0.0583
     37 H           8.7125    3.4375   -1.2136 H       1  UNL1        0.0583
     38 H           8.5058    5.4919   -2.5335 H       1  UNL1        0.0583
     39 H           8.5058    4.5475   -4.0035 H       1  UNL1        0.0583
     40 H          10.3992    6.6183   -3.2571 H       1  UNL1        0.0583
     41 H          10.3992    5.6739   -4.7272 H       1  UNL1        0.0583
     42 H          12.6325    4.8252   -4.1819 H       1  UNL1        0.0583
     43 H          12.6325    5.7696   -2.7118 H       1  UNL1        0.0583
     44 H          14.5258    5.9516   -4.9055 H       1  UNL1        0.0578
     45 H          14.5258    6.8960   -3.4354 H       1  UNL1        0.0578
     46 H          14.3192    8.9504   -4.7552 H       1  UNL1        0.0532
     47 H          14.3192    8.0060   -6.2253 H       1  UNL1        0.0532
     48 H          16.3262    9.8206   -6.3527 H       1  UNL1        0.0845
     49 H          19.6576    8.3857   -4.3925 H       1  UNL1        0.0329
     50 H          19.6576    7.4413   -5.8625 H       1  UNL1        0.0329
     51 H          17.4395    6.5647   -5.2994 H       1  UNL1        0.0270
     52 H          17.4395    7.5091   -3.8293 H       1  UNL1        0.0270
     53 H          19.4299    6.3062   -3.0565 H       1  UNL1        0.0287
     54 H          19.4299    5.3618   -4.5266 H       1  UNL1        0.0287
     55 H          17.2118    4.4851   -3.9634 H       1  UNL1        0.0557
     56 H          17.2118    5.4295   -2.4934 H       1  UNL1        0.0557
     57 H          19.0946    3.4037   -3.1717 H       1  UNL1        0.2094
@<TRIPOS>BOND
     1     1     2    1
     2     2     3    1
     3     3     4    1
     4     4     5    1
     5     5     6    1
     6     6     7    1
     7     7     8    1
     8     8     9    1
     9     9    10    1
    10    10    11    1
    11    11    12    1
    12    12    13    1
    13    13    14    1
    14    14    15    1
    15    15    16    1
    16    16    17   ar
    17    17    18   ar
    18    18    19    1
    19    19    20    1
    20    20    21    1
    21    21    22    1
    22    22    23    1
    23    18    24   ar
    24    24    25   ar
    25    16    25   ar
    26     1    26    1
    27     1    27    1
    28     2    28    1
    29     2    29    1
    30     3    30    1
    31     3    31    1
    32     5    32    1
    33     5    33    1
    34     6    34    1
    35     6    35    1
    36     8    36    1
    37     8    37    1
    38     9    38    1
    39     9    39    1
    40    11    40    1
    41    11    41    1
    42    12    42    1
    43    12    43    1
    44    14    44    1
    45    14    45    1
    46    15    46    1
    47    15    47    1
    48    17    48    1
    49    19    49    1
    50    19    50    1
    51    20    51    1
    52    20    52    1
    53    21    53    1
    54    21    54    1
    55    22    55    1
    56    22    56    1
    57    23    57    1
