@<TRIPOS>MOLECULE
*****
 26 25 0 0 0
SMALL
GASTEIGER

@<TRIPOS>ATOM
      1 C           1.0702   -0.0456   -0.0547 C.3     1  UNL1       -0.0653
      2 C           2.5902   -0.0456   -0.0547 C.3     1  UNL1       -0.0559
      3 C           3.0969    1.0947    0.8132 C.3     1  UNL1       -0.0519
      4 C           4.6169    1.0947    0.8132 C.3     1  UNL1       -0.0374
      5 C           5.1235    2.2351    1.6812 C.3     1  UNL1        0.0116
      6 N           6.5935    2.2351    1.6812 N.am    1  UNL1       -0.3150
      7 C           7.3285    3.2480    2.4523 C.2     1  UNL1        0.2199
      8 O           6.6931    4.1238    3.1189 O.2     1  UNL1       -0.2754
      9 C           8.8485    3.2480    2.4523 C.3     1  UNL1        0.0793
     10 C           9.3552    4.3884    3.3203 C.2     1  UNL1        0.1290
     11 O          10.6047    4.5732    3.4609 O.2     1  UNL1       -0.3005
     12 H           0.7135   -0.8483   -0.6657 H       1  UNL1        0.0230
     13 H           0.7135    0.8849   -0.4444 H       1  UNL1        0.0230
     14 H           0.7135   -0.1734    0.9460 H       1  UNL1        0.0230
     15 H           2.9469    0.0822   -1.0554 H       1  UNL1        0.0263
     16 H           2.9469   -0.9761    0.3349 H       1  UNL1        0.0263
     17 H           2.7402    0.9670    1.8139 H       1  UNL1        0.0266
     18 H           2.7402    2.0253    0.4236 H       1  UNL1        0.0266
     19 H           4.9735    1.2225   -0.1874 H       1  UNL1        0.0280
     20 H           4.9735    0.1642    1.2029 H       1  UNL1        0.0280
     21 H           4.7669    2.1073    2.6819 H       1  UNL1        0.0462
     22 H           4.7669    3.1656    1.2916 H       1  UNL1        0.0462
     23 H           7.0858    1.5566    1.1648 H       1  UNL1        0.1487
     24 H           9.2052    3.3758    1.4516 H       1  UNL1        0.0433
     25 H           9.2052    2.3175    2.8419 H       1  UNL1        0.0433
     26 H           8.6846    5.0125    3.7953 H       1  UNL1        0.1031
@<TRIPOS>BOND
     1     1     2    1
     2     2     3    1
     3     3     4    1
     4     4     5    1
     5     5     6    1
     6     6     7   am
     7     7     8    2
     8     7     9    1
     9     9    10    1
    10    10    11    2
    11     1    12    1
    12     1    13    1
    13     1    14    1
    14     2    15    1
    15     2    16    1
    16     3    17    1
    17     3    18    1
    18     4    19    1
    19     4    20    1
    20     5    21    1
    21     5    22    1
    22     6    23    1
    23     9    24    1
    24     9    25    1
    25    10    26    1
