@<TRIPOS>MOLECULE
*****
 50 50 0 0 0
SMALL
GASTEIGER

@<TRIPOS>ATOM
      1 O           1.0799    0.0589    0.0121 O.2     1  UNL1       -0.2755
      2 C           2.3508    0.0589    0.0121 C.2     1  UNL1        0.2172
      3 C           3.1108    0.6986   -1.1384 C.3     1  UNL1        0.0243
      4 C           2.1230    1.2600   -2.1481 C.3     1  UNL1       -0.0448
      5 C           2.8830    1.8996   -3.2986 C.3     1  UNL1       -0.0526
      6 C           1.8953    2.4610   -4.3084 C.3     1  UNL1       -0.0530
      7 C           2.6553    3.1007   -5.4589 C.3     1  UNL1       -0.0531
      8 C           1.6675    3.6621   -6.4686 C.3     1  UNL1       -0.0531
      9 C           2.4275    4.3017   -7.6191 C.3     1  UNL1       -0.0531
     10 C           1.4398    4.8631   -8.6289 C.3     1  UNL1       -0.0530
     11 C           2.1998    5.5028   -9.7794 C.3     1  UNL1       -0.0510
     12 C           1.2120    6.0642  -10.7891 C.3     1  UNL1       -0.0297
     13 C           1.9720    6.7039  -11.9396 C.3     1  UNL1        0.0442
     14 O           1.0493    7.2283  -12.8829 O.3     1  UNL1       -0.3950
     15 N           3.0858   -0.5597    1.1247 N.am    1  UNL1       -0.2855
     16 C           4.5558   -0.5597    1.1247 C.ar    1  UNL1        0.0334
     17 C           5.2759   -1.1658    2.2148 C.ar    1  UNL1       -0.0405
     18 C           6.7161   -1.1658    2.2148 C.ar    1  UNL1       -0.0600
     19 C           7.4362   -1.7718    3.3049 C.ar    1  UNL1       -0.0616
     20 C           8.8764   -1.7718    3.3049 C.ar    1  UNL1       -0.0600
     21 C           5.2759    0.0464    0.0347 C.ar    1  UNL1       -0.0405
     22 H           3.7259   -0.0374   -1.6125 H       1  UNL1        0.0358
     23 H           3.7259    1.4897   -0.7634 H       1  UNL1        0.0358
     24 H           1.5079    1.9960   -1.6741 H       1  UNL1        0.0270
     25 H           1.5079    0.4689   -2.5231 H       1  UNL1        0.0270
     26 H           3.4982    1.1636   -3.7727 H       1  UNL1        0.0265
     27 H           3.4982    2.6908   -2.9237 H       1  UNL1        0.0265
     28 H           1.2801    3.1971   -3.8343 H       1  UNL1        0.0265
     29 H           1.2801    1.6699   -4.6834 H       1  UNL1        0.0265
     30 H           3.2704    2.3647   -5.9330 H       1  UNL1        0.0265
     31 H           3.2704    3.8918   -5.0839 H       1  UNL1        0.0265
     32 H           1.0524    4.3981   -5.9946 H       1  UNL1        0.0265
     33 H           1.0524    2.8710   -6.8436 H       1  UNL1        0.0265
     34 H           3.0427    3.5657   -8.0932 H       1  UNL1        0.0265
     35 H           3.0427    5.0929   -7.2441 H       1  UNL1        0.0265
     36 H           0.8246    5.5992   -8.1548 H       1  UNL1        0.0265
     37 H           0.8246    4.0720   -9.0039 H       1  UNL1        0.0265
     38 H           2.8150    4.7668  -10.2534 H       1  UNL1        0.0266
     39 H           2.8150    6.2939   -9.4044 H       1  UNL1        0.0266
     40 H           0.5969    6.8002  -10.3151 H       1  UNL1        0.0287
     41 H           0.5969    5.2731  -11.1641 H       1  UNL1        0.0287
     42 H           2.5872    5.9678  -12.4137 H       1  UNL1        0.0557
     43 H           2.5872    7.4950  -11.5646 H       1  UNL1        0.0557
     44 H           0.4916    6.5111  -13.2229 H       1  UNL1        0.2094
     45 H           2.5935   -0.9740    1.8699 H       1  UNL1        0.1548
     46 H           4.7599   -1.6000    2.9960 H       1  UNL1        0.0636
     47 H           7.2321   -0.7315    1.4337 H       1  UNL1        0.0618
     48 H           6.9202   -2.2061    4.0861 H       1  UNL1        0.0618
     49 H           9.8260   -1.9682    3.6581 H       1  UNL1        0.0618
     50 H           5.1510    0.5442   -0.8607 H       1  UNL1        0.0636
@<TRIPOS>BOND
     1     1     2    2
     2     2     3    1
     3     3     4    1
     4     4     5    1
     5     5     6    1
     6     6     7    1
     7     7     8    1
     8     8     9    1
     9     9    10    1
    10    10    11    1
    11    11    12    1
    12    12    13    1
    13    13    14    1
    14     2    15   am
    15    15    16    1
    16    16    17   ar
    17    17    18   ar
    18    18    19   ar
    19    19    20   ar
    20    20    21   ar
    21    16    21   ar
    22     3    22    1
    23     3    23    1
    24     4    24    1
    25     4    25    1
    26     5    26    1
    27     5    27    1
    28     6    28    1
    29     6    29    1
    30     7    30    1
    31     7    31    1
    32     8    32    1
    33     8    33    1
    34     9    34    1
    35     9    35    1
    36    10    36    1
    37    10    37    1
    38    11    38    1
    39    11    39    1
    40    12    40    1
    41    12    41    1
    42    13    42    1
    43    13    43    1
    44    14    44    1
    45    15    45    1
    46    17    46    1
    47    18    47    1
    48    19    48    1
    49    20    49    1
    50    21    50    1
