@<TRIPOS>MOLECULE
*****
 57 59 0 0 0
SMALL
GASTEIGER

@<TRIPOS>ATOM
      1 C           1.0125    0.0739    0.0662 C.ar    1  UNL1       -0.0615
      2 C           2.4527    0.0739    0.0662 C.ar    1  UNL1       -0.0583
      3 C           3.1728   -0.4178    1.2124 C.ar    1  UNL1       -0.0199
      4 C           4.6130   -0.4178    1.2124 C.ar    1  UNL1        0.1206
      5 O           5.3230    0.0670    0.0823 O.3     1  UNL1       -0.4907
      6 C           4.6130    0.5519   -1.0479 C.3     1  UNL1        0.1022
      7 C           5.6007    1.0074   -2.1096 C.3     1  UNL1        0.0332
      8 N           4.8657    1.5093   -3.2795 N.3     1  UNL1       -0.2967
      9 C           5.8210    1.9499   -4.3063 C.3     1  UNL1        0.0118
     10 C           5.0610    2.4689   -5.5161 C.3     1  UNL1        0.0117
     11 N           6.0162    2.9094   -6.5429 N.3     1  UNL1       -0.2999
     12 C           6.8613    1.7757   -6.9445 C.3     1  UNL1       -0.0010
     13 C           7.6213    1.2567   -5.7348 C.3     1  UNL1       -0.0400
     14 C           8.4952    0.0844   -6.1501 C.3     1  UNL1       -0.0490
     15 C           9.2552   -0.4346   -4.9404 C.3     1  UNL1       -0.0387
     16 C          10.1291   -1.6069   -5.3557 C.3     1  UNL1       -0.0376
     17 C          10.8891   -2.1259   -4.1460 C.3     1  UNL1       -0.0039
     18 N          11.7342   -3.2596   -4.5477 N.3     1  UNL1       -0.3160
     19 C          12.4692   -3.7615   -3.3777 C.3     1  UNL1       -0.0039
     20 C           8.2675   -0.8901   -3.8787 C.3     1  UNL1       -0.0376
     21 C           5.2812    3.4114   -7.7128 C.3     1  UNL1        0.0117
     22 C           4.0206    2.6431   -2.8779 C.3     1  UNL1        0.0118
     23 C           5.3331   -0.9096    2.3586 C.ar    1  UNL1       -0.0199
     24 C           0.2924    0.5657   -1.0800 C.ar    1  UNL1       -0.0583
     25 H           0.4965   -0.2785    0.8875 H       1  UNL1        0.0618
     26 H           2.9687    0.4263   -0.7552 H       1  UNL1        0.0619
     27 H           2.6568   -0.7702    2.0337 H       1  UNL1        0.0654
     28 H           3.9978    1.3771   -0.7555 H       1  UNL1        0.0709
     29 H           3.9978   -0.2286   -1.4444 H       1  UNL1        0.0709
     30 H           6.2159    0.1822   -2.4020 H       1  UNL1        0.0460
     31 H           6.2159    1.7879   -1.7130 H       1  UNL1        0.0460
     32 H           6.4361    1.1247   -4.5987 H       1  UNL1        0.0439
     33 H           6.4361    2.7304   -3.9098 H       1  UNL1        0.0439
     34 H           4.4458    3.2941   -5.2237 H       1  UNL1        0.0439
     35 H           4.4458    1.6884   -5.9126 H       1  UNL1        0.0439
     36 H           7.5567    2.0964   -7.6919 H       1  UNL1        0.0426
     37 H           6.2462    0.9952   -7.3411 H       1  UNL1        0.0426
     38 H           6.9260    0.9360   -4.9874 H       1  UNL1        0.0278
     39 H           8.2365    2.0372   -5.3382 H       1  UNL1        0.0278
     40 H           9.1905    0.4051   -6.8975 H       1  UNL1        0.0268
     41 H           7.8801   -0.6961   -6.5467 H       1  UNL1        0.0268
     42 H           9.8704    0.3459   -4.5438 H       1  UNL1        0.0302
     43 H          10.8244   -1.2862   -6.1031 H       1  UNL1        0.0280
     44 H           9.5139   -2.3874   -5.7523 H       1  UNL1        0.0280
     45 H          10.1938   -2.4465   -3.3986 H       1  UNL1        0.0424
     46 H          11.5042   -1.3454   -3.7495 H       1  UNL1        0.0424
     47 H          12.3970   -2.9539   -5.2602 H       1  UNL1        0.1219
     48 H          13.4075   -3.3445   -3.0768 H       1  UNL1        0.0424
     49 H          12.7869   -4.6849   -2.9402 H       1  UNL1        0.0424
     50 H           8.0351   -0.2063   -3.0892 H       1  UNL1        0.0280
     51 H           7.2484   -1.1966   -3.9902 H       1  UNL1        0.0280
     52 H           4.9493    2.7622   -8.4959 H       1  UNL1        0.0439
     53 H           5.3237    4.1953   -8.4398 H       1  UNL1        0.0439
     54 H           2.9925    2.4421   -2.6596 H       1  UNL1        0.0439
     55 H           4.1319    3.3012   -2.0415 H       1  UNL1        0.0439
     56 H           6.0197   -1.2134    3.0666 H       1  UNL1        0.0654
     57 H          -0.3942    0.8695   -1.7881 H       1  UNL1        0.0619
@<TRIPOS>BOND
     1     1     2   ar
     2     2     3   ar
     3     3     4   ar
     4     4     5    1
     5     5     6    1
     6     6     7    1
     7     7     8    1
     8     8     9    1
     9     9    10    1
    10    10    11    1
    11    11    12    1
    12    12    13    1
    13    13    14    1
    14    14    15    1
    15    15    16    1
    16    16    17    1
    17    17    18    1
    18    18    19    1
    19    19    20    1
    20    15    20    1
    21    11    21    1
    22    21    22    1
    23     8    22    1
    24     4    23   ar
    25    23    24   ar
    26     1    24   ar
    27     1    25    1
    28     2    26    1
    29     3    27    1
    30     6    28    1
    31     6    29    1
    32     7    30    1
    33     7    31    1
    34     9    32    1
    35     9    33    1
    36    10    34    1
    37    10    35    1
    38    12    36    1
    39    12    37    1
    40    13    38    1
    41    13    39    1
    42    14    40    1
    43    14    41    1
    44    15    42    1
    45    16    43    1
    46    16    44    1
    47    17    45    1
    48    17    46    1
    49    18    47    1
    50    19    48    1
    51    19    49    1
    52    20    50    1
    53    20    51    1
    54    21    52    1
    55    21    53    1
    56    22    54    1
    57    22    55    1
    58    23    56    1
    59    24    57    1
