@<TRIPOS>MOLECULE
*****
 10 9 0 0 0
SMALL
GASTEIGER

@<TRIPOS>ATOM
      1 C           0.9270    0.0263    0.0631 C.1     1  UNL1       -0.1192
      2 C           2.2309    0.0263    0.0631 C.1     1  UNL1       -0.1058
      3 C           3.7509    0.0263    0.0631 C.3     1  UNL1        0.0061
      4 C           4.2576    0.2476   -1.3528 C.3     1  UNL1       -0.0544
      5 H          -0.0670    0.0263    0.0631 H       1  UNL1        0.1228
      6 H           4.1076   -0.9147    0.4266 H       1  UNL1        0.0395
      7 H           4.1076    0.8116    0.6964 H       1  UNL1        0.0395
      8 H           3.9009   -0.5377   -1.9860 H       1  UNL1        0.0239
      9 H           5.3276    0.2476   -1.3528 H       1  UNL1        0.0239
     10 H           3.9009    1.1886   -1.7162 H       1  UNL1        0.0239
@<TRIPOS>BOND
     1     1     2    3
     2     2     3    1
     3     3     4    1
     4     1     5    1
     5     3     6    1
     6     3     7    1
     7     4     8    1
     8     4     9    1
     9     4    10    1
