@<TRIPOS>MOLECULE
*****
 40 39 0 0 0
SMALL
GASTEIGER

@<TRIPOS>ATOM
      1 C           1.0692    0.0483    0.0537 C.3     1  UNL1       -0.0416
      2 C           2.5892    0.0483    0.0537 C.3     1  UNL1        0.0449
      3 O           3.0625    1.2524    0.6390 O.3     1  UNL1       -0.3778
      4 C           4.4825    1.2524    0.6390 C.3     1  UNL1        0.0710
      5 C           4.9892    2.5412    1.2654 C.3     1  UNL1        0.0711
      6 O           6.4092    2.5412    1.2654 O.3     1  UNL1       -0.3752
      7 C           6.8825    3.7453    1.8507 C.3     1  UNL1        0.0711
      8 C           8.4025    3.7453    1.8507 C.3     1  UNL1        0.0711
      9 O           8.8758    4.9494    2.4360 O.3     1  UNL1       -0.3752
     10 C          10.2958    4.9494    2.4360 C.3     1  UNL1        0.0711
     11 C          10.8025    6.2383    3.0625 C.3     1  UNL1        0.0711
     12 O          12.2225    6.2383    3.0625 O.3     1  UNL1       -0.3752
     13 C          12.6958    7.4424    3.6477 C.3     1  UNL1        0.0711
     14 C          14.2158    7.4424    3.6477 C.3     1  UNL1        0.0706
     15 O          14.6892    8.6464    4.2330 O.3     1  UNL1       -0.3807
     16 C          16.1092    8.6464    4.2330 C.3     1  UNL1        0.0365
     17 H           0.7125   -0.8590   -0.3873 H       1  UNL1        0.0252
     18 H           0.7125    0.8838   -0.5116 H       1  UNL1        0.0252
     19 H           0.7125    0.1200    1.0599 H       1  UNL1        0.0252
     20 H           2.9459   -0.0235   -0.9526 H       1  UNL1        0.0557
     21 H           2.9459   -0.7873    0.6189 H       1  UNL1        0.0557
     22 H           4.8392    1.1806   -0.3673 H       1  UNL1        0.0583
     23 H           4.8392    0.4168    1.2042 H       1  UNL1        0.0583
     24 H           4.6325    2.6130    2.2717 H       1  UNL1        0.0583
     25 H           4.6325    3.3768    0.7002 H       1  UNL1        0.0583
     26 H           6.5258    3.8170    2.8570 H       1  UNL1        0.0583
     27 H           6.5258    4.5809    1.2855 H       1  UNL1        0.0583
     28 H           8.7592    3.6736    0.8445 H       1  UNL1        0.0583
     29 H           8.7592    2.9097    2.4159 H       1  UNL1        0.0583
     30 H          10.6525    4.8777    1.4297 H       1  UNL1        0.0583
     31 H          10.6525    4.1138    3.0012 H       1  UNL1        0.0583
     32 H          10.4458    6.3100    4.0687 H       1  UNL1        0.0583
     33 H          10.4458    7.0739    2.4972 H       1  UNL1        0.0583
     34 H          12.3392    7.5141    4.6540 H       1  UNL1        0.0583
     35 H          12.3392    8.2779    3.0825 H       1  UNL1        0.0583
     36 H          14.5725    7.3706    2.6415 H       1  UNL1        0.0582
     37 H          14.5725    6.6068    4.2130 H       1  UNL1        0.0582
     38 H          16.4658    9.5537    4.6740 H       1  UNL1        0.0524
     39 H          16.4658    8.5747    3.2268 H       1  UNL1        0.0524
     40 H          16.4658    7.8109    4.7983 H       1  UNL1        0.0524
@<TRIPOS>BOND
     1     1     2    1
     2     2     3    1
     3     3     4    1
     4     4     5    1
     5     5     6    1
     6     6     7    1
     7     7     8    1
     8     8     9    1
     9     9    10    1
    10    10    11    1
    11    11    12    1
    12    12    13    1
    13    13    14    1
    14    14    15    1
    15    15    16    1
    16     1    17    1
    17     1    18    1
    18     1    19    1
    19     2    20    1
    20     2    21    1
    21     4    22    1
    22     4    23    1
    23     5    24    1
    24     5    25    1
    25     7    26    1
    26     7    27    1
    27     8    28    1
    28     8    29    1
    29    10    30    1
    30    10    31    1
    31    11    32    1
    32    11    33    1
    33    13    34    1
    34    13    35    1
    35    14    36    1
    36    14    37    1
    37    16    38    1
    38    16    39    1
    39    16    40    1
