@<TRIPOS>MOLECULE
*****
 26 25 0 0 0
SMALL
GASTEIGER

@<TRIPOS>ATOM
      1 C           1.0330    0.0828   -0.0453 C.3     1  UNL1       -0.0653
      2 C           2.5530    0.0828   -0.0453 C.3     1  UNL1       -0.0559
      3 C           3.0597   -0.9144   -1.0745 C.3     1  UNL1       -0.0533
      4 C           4.5797   -0.9144   -1.0745 C.3     1  UNL1       -0.0531
      5 C           5.0863   -1.9117   -2.1037 C.3     1  UNL1       -0.0531
      6 C           6.6063   -1.9117   -2.1037 C.3     1  UNL1       -0.0533
      7 C           7.1130   -2.9089   -3.1329 C.3     1  UNL1       -0.0559
      8 C           8.6330   -2.9089   -3.1329 C.3     1  UNL1       -0.0653
      9 H           0.6763    0.7848    0.6792 H       1  UNL1        0.0230
     10 H           0.6763   -0.8956    0.2004 H       1  UNL1        0.0230
     11 H           0.6763    0.3592   -1.0155 H       1  UNL1        0.0230
     12 H           2.9097   -0.1936    0.9249 H       1  UNL1        0.0263
     13 H           2.9097    1.0612   -0.2910 H       1  UNL1        0.0263
     14 H           2.7030   -0.6380   -2.0447 H       1  UNL1        0.0265
     15 H           2.7030   -1.8928   -0.8288 H       1  UNL1        0.0265
     16 H           4.9363   -1.1908   -0.1043 H       1  UNL1        0.0265
     17 H           4.9363    0.0640   -1.3202 H       1  UNL1        0.0265
     18 H           4.7297   -1.6352   -3.0739 H       1  UNL1        0.0265
     19 H           4.7297   -2.8901   -1.8580 H       1  UNL1        0.0265
     20 H           6.9630   -2.1881   -1.1335 H       1  UNL1        0.0265
     21 H           6.9630   -0.9332   -2.3494 H       1  UNL1        0.0265
     22 H           6.7563   -2.6325   -4.1030 H       1  UNL1        0.0263
     23 H           6.7563   -3.8873   -2.8871 H       1  UNL1        0.0263
     24 H           8.9896   -1.9305   -3.3786 H       1  UNL1        0.0230
     25 H           8.9897   -3.6109   -3.8573 H       1  UNL1        0.0230
     26 H           8.9897   -3.1853   -2.1627 H       1  UNL1        0.0230
@<TRIPOS>BOND
     1     1     2    1
     2     2     3    1
     3     3     4    1
     4     4     5    1
     5     5     6    1
     6     6     7    1
     7     7     8    1
     8     1     9    1
     9     1    10    1
    10     1    11    1
    11     2    12    1
    12     2    13    1
    13     3    14    1
    14     3    15    1
    15     4    16    1
    16     4    17    1
    17     5    18    1
    18     5    19    1
    19     6    20    1
    20     6    21    1
    21     7    22    1
    22     7    23    1
    23     8    24    1
    24     8    25    1
    25     8    26    1
