@<TRIPOS>MOLECULE
*****
 17 16 0 0 0
SMALL
GASTEIGER

@<TRIPOS>ATOM
      1 C           0.9264    0.0550   -0.0395 C.3     1  UNL1       -0.0653
      2 C           2.4464    0.0550   -0.0395 C.3     1  UNL1       -0.0559
      3 C           2.9531   -0.7855    1.1212 C.3     1  UNL1       -0.0536
      4 C           4.4731   -0.7855    1.1212 C.3     1  UNL1       -0.0559
      5 C           4.9798   -1.6260    2.2819 C.3     1  UNL1       -0.0653
      6 H           0.5698    0.6467   -0.8566 H       1  UNL1        0.0230
      7 H           0.5698    0.4668    0.8814 H       1  UNL1        0.0230
      8 H           0.5698   -0.9484   -0.1434 H       1  UNL1        0.0230
      9 H           2.8031    1.0585    0.0644 H       1  UNL1        0.0263
     10 H           2.8031   -0.3567   -0.9605 H       1  UNL1        0.0263
     11 H           2.5964   -1.7889    1.0173 H       1  UNL1        0.0265
     12 H           2.5964   -0.3737    2.0421 H       1  UNL1        0.0265
     13 H           4.8298    0.2179    1.2251 H       1  UNL1        0.0263
     14 H           4.8298   -1.1973    0.2002 H       1  UNL1        0.0263
     15 H           4.6231   -1.2143    3.2028 H       1  UNL1        0.0230
     16 H           6.0498   -1.6260    2.2819 H       1  UNL1        0.0230
     17 H           4.6231   -2.6295    2.1780 H       1  UNL1        0.0230
@<TRIPOS>BOND
     1     1     2    1
     2     2     3    1
     3     3     4    1
     4     4     5    1
     5     1     6    1
     6     1     7    1
     7     1     8    1
     8     2     9    1
     9     2    10    1
    10     3    11    1
    11     3    12    1
    12     4    13    1
    13     4    14    1
    14     5    15    1
    15     5    16    1
    16     5    17    1
