@<TRIPOS>MOLECULE
*****
 31 30 0 0 0
SMALL
GASTEIGER

@<TRIPOS>ATOM
      1 C           1.0559    0.0523   -0.0644 C.3     1  UNL1       -0.0416
      2 C           2.5759    0.0523   -0.0644 C.3     1  UNL1        0.0449
      3 O           3.0492    1.2621    0.5089 O.3     1  UNL1       -0.3778
      4 C           4.4692    1.2621    0.5089 C.3     1  UNL1        0.0710
      5 C           4.9759    2.5571    1.1226 C.3     1  UNL1        0.0711
      6 O           6.3959    2.5571    1.1226 O.3     1  UNL1       -0.3760
      7 C           6.8692    3.7670    1.6959 C.3     1  UNL1        0.0633
      8 C           8.3892    3.7670    1.6959 C.3     1  UNL1        0.0351
      9 N           8.8792    5.0194    2.2894 N.am    1  UNL1       -0.3121
     10 C          10.3245    5.2622    2.4044 C.2     1  UNL1        0.2268
     11 O          11.1503    4.3892    1.9908 O.2     1  UNL1       -0.2744
     12 C          10.8311    6.5572    3.0181 C.3     1  UNL1        0.0707
     13 N          12.3011    6.5572    3.0181 N.3     1  UNL1       -0.3225
     14 H           0.6992   -0.8593   -0.4963 H       1  UNL1        0.0252
     15 H           0.6992    0.8822   -0.6379 H       1  UNL1        0.0252
     16 H           0.6992    0.1340    0.9411 H       1  UNL1        0.0252
     17 H           2.9326   -0.0294   -1.0698 H       1  UNL1        0.0557
     18 H           2.9326   -0.7776    0.5091 H       1  UNL1        0.0557
     19 H           4.8259    1.1804   -0.4966 H       1  UNL1        0.0583
     20 H           4.8259    0.4322    1.0824 H       1  UNL1        0.0583
     21 H           4.6192    2.6389    2.1281 H       1  UNL1        0.0583
     22 H           4.6192    3.3871    0.5491 H       1  UNL1        0.0583
     23 H           6.5125    3.8487    2.7014 H       1  UNL1        0.0575
     24 H           6.5125    4.5969    1.1224 H       1  UNL1        0.0575
     25 H           8.7459    3.6853    0.6904 H       1  UNL1        0.0484
     26 H           8.7459    2.9371    2.2694 H       1  UNL1        0.0484
     27 H           8.2394    5.6956    2.6098 H       1  UNL1        0.1488
     28 H          10.4745    6.6389    4.0236 H       1  UNL1        0.0518
     29 H          10.4745    7.3871    2.4446 H       1  UNL1        0.0518
     30 H          12.6411    5.7660    3.5648 H       1  UNL1        0.1186
     31 H          12.6411    7.4262    3.4299 H       1  UNL1        0.1186
@<TRIPOS>BOND
     1     1     2    1
     2     2     3    1
     3     3     4    1
     4     4     5    1
     5     5     6    1
     6     6     7    1
     7     7     8    1
     8     8     9    1
     9     9    10   am
    10    10    11    2
    11    10    12    1
    12    12    13    1
    13     1    14    1
    14     1    15    1
    15     1    16    1
    16     2    17    1
    17     2    18    1
    18     4    19    1
    19     4    20    1
    20     5    21    1
    21     5    22    1
    22     7    23    1
    23     7    24    1
    24     8    25    1
    25     8    26    1
    26     9    27    1
    27    12    28    1
    28    12    29    1
    29    13    30    1
    30    13    31    1
