@<TRIPOS>MOLECULE
*****
 9 8 0 0 0
SMALL
GASTEIGER

@<TRIPOS>ATOM
      1 C           0.9901    0.0500   -0.0860 C.3     1  UNL1        0.0361
      2 O           2.4101    0.0500   -0.0860 O.3     1  UNL1       -0.3862
      3 C           2.8835    1.2577   -0.6638 C.3     1  UNL1        0.0361
      4 H           0.6335   -0.8600    0.3493 H       1  UNL1        0.0523
      5 H           0.6335    0.1279   -1.0918 H       1  UNL1        0.0523
      6 H           0.6335    0.8820    0.4844 H       1  UNL1        0.0523
      7 H           3.9535    1.2577   -0.6638 H       1  UNL1        0.0523
      8 H           2.5268    2.0897   -0.0934 H       1  UNL1        0.0523
      9 H           2.5268    1.3356   -1.6696 H       1  UNL1        0.0523
@<TRIPOS>BOND
     1     1     2    1
     2     2     3    1
     3     1     4    1
     4     1     5    1
     5     1     6    1
     6     3     7    1
     7     3     8    1
     8     3     9    1
