@<TRIPOS>MOLECULE
*****
 35 36 0 0 0
SMALL
GASTEIGER

@<TRIPOS>ATOM
      1 C           0.9492   -0.0619   -0.0599 C.3     1  UNL1       -0.0641
      2 C           2.4692   -0.0619   -0.0599 C.3     1  UNL1       -0.0431
      3 C           2.9759   -0.9138    1.0924 C.3     1  UNL1       -0.0012
      4 N           4.4459   -0.9138    1.0924 N.3     1  UNL1       -0.2994
      5 C           4.9359   -1.7378    2.2068 C.3     1  UNL1        0.0148
      6 C           6.4559   -1.7378    2.2068 C.3     1  UNL1        0.0278
      7 N           6.9459   -2.5617    3.3212 N.am    1  UNL1       -0.2950
      8 C           5.9906   -3.2260    4.2197 C.2     1  UNL1        0.2496
      9 O           6.4142   -3.9383    5.1831 O.2     1  UNL1       -0.2699
     10 C           4.4962   -3.0608    3.9963 C.ar    1  UNL1        0.0730
     11 C           3.5603   -3.7116    4.8765 C.ar    1  UNL1        0.0429
     12 N           2.1909   -3.5603    4.6719 N.ar    1  UNL1       -0.2430
     13 C           1.2858   -4.1897    5.5231 C.ar    1  UNL1        0.1159
     14 N          -0.0835   -4.0384    5.3185 N.ar    1  UNL1       -0.2430
     15 C           4.0161   -2.2536    2.9045 C.ar    1  UNL1        0.0429
     16 C           8.3911   -2.7214    3.5372 C.3     1  UNL1        0.0278
     17 C           4.9359    0.4632    1.2487 C.3     1  UNL1        0.0148
     18 H           0.5926    0.5379   -0.8711 H       1  UNL1        0.0230
     19 H           0.5925    0.3407    0.8650 H       1  UNL1        0.0230
     20 H           0.5925   -1.0643   -0.1737 H       1  UNL1        0.0230
     21 H           2.8259    0.9405    0.0539 H       1  UNL1        0.0275
     22 H           2.8259   -0.4645   -0.9849 H       1  UNL1        0.0275
     23 H           2.6192   -1.9162    0.9786 H       1  UNL1        0.0426
     24 H           2.6192   -0.5112    2.0174 H       1  UNL1        0.0426
     25 H           4.5792   -2.7402    2.0930 H       1  UNL1        0.0442
     26 H           4.5792   -1.3352    3.1318 H       1  UNL1        0.0442
     27 H           6.8125   -0.7354    2.3206 H       1  UNL1        0.0477
     28 H           6.8125   -2.1404    1.2818 H       1  UNL1        0.0477
     29 H           3.9043   -4.2901    5.6589 H       1  UNL1        0.0838
     30 H           1.6298   -4.7681    6.3055 H       1  UNL1        0.1047
     31 H           4.3206   -1.6674    2.1116 H       1  UNL1        0.0838
     32 H           8.9880   -3.4223    2.9919 H       1  UNL1        0.0477
     33 H           9.1443   -2.7650    4.2960 H       1  UNL1        0.0477
     34 H           5.2461    0.9853    0.3678 H       1  UNL1        0.0442
     35 H           4.4353    1.3208    1.6473 H       1  UNL1        0.0442
@<TRIPOS>BOND
     1     1     2    1
     2     2     3    1
     3     3     4    1
     4     4     5    1
     5     5     6    1
     6     6     7    1
     7     7     8   am
     8     8     9    2
     9     8    10    1
    10    10    11   ar
    11    11    12   ar
    12    12    13   ar
    13    13    14   ar
    14    14    15   ar
    15    10    15   ar
    16     7    16    1
    17    16    17    1
    18     4    17    1
    19     1    18    1
    20     1    19    1
    21     1    20    1
    22     2    21    1
    23     2    22    1
    24     3    23    1
    25     3    24    1
    26     5    25    1
    27     5    26    1
    28     6    27    1
    29     6    28    1
    30    11    29    1
    31    13    30    1
    32    15    31    1
    33    16    32    1
    34    16    33    1
    35    17    34    1
    36    17    35    1
