@<TRIPOS>MOLECULE
*****
 72 76 0 0 0
SMALL
GASTEIGER

@<TRIPOS>ATOM
      1 C           0.9400    0.0792    0.0113 C.3     1  UNL1       -0.0621
      2 C           2.4600    0.0792    0.0113 C.3     1  UNL1       -0.0189
      3 C           2.9666    1.3160    0.7352 C.3     1  UNL1        0.1176
      4 O           4.3866    1.3160    0.7352 O.2     1  UNL1       -0.3933
      5 N           5.0716    2.3399    1.3345 N.2     1  UNL1       -0.0826
      6 C           6.3873    2.3399    1.3345 C.2     1  UNL1        0.1333
      7 C           7.1473    3.4760    1.9995 C.2     1  UNL1        0.0738
      8 C           6.4671    4.4927    2.5947 C.2     1  UNL1        0.0694
      9 C           7.2271    5.6288    3.2596 C.2     1  UNL1        0.2537
     10 O           8.4980    5.6288    3.2596 O.2     1  UNL1       -0.2695
     11 N           6.4921    6.7275    3.9027 N.am    1  UNL1       -0.2609
     12 C           5.0221    6.7275    3.9027 C.3     1  UNL1        0.0655
     13 C           4.5154    5.4907    3.1788 C.ar    1  UNL1        0.1004
     14 C           3.0995    5.2636    3.0459 C.ar    1  UNL1        0.0503
     15 N           2.6352    4.1303    2.3825 N.ar    1  UNL1       -0.2492
     16 C           3.5905    3.1660    1.8181 C.3     1  UNL1        0.0665
     17 C           5.0090    3.6373    2.0940 C.3     1  UNL1        0.0673
     18 O           5.9317    2.7059    1.5488 O.3     1  UNL1       -0.3757
     19 C           7.2569    3.1462    1.8065 C.3     1  UNL1        0.0711
     20 C           8.2446    2.1491    1.2229 C.3     1  UNL1        0.0711
     21 O           9.5698    2.5895    1.4806 O.3     1  UNL1       -0.3763
     22 C          10.4926    1.6580    0.9354 C.3     1  UNL1        0.0600
     23 C          11.9111    2.1293    1.2113 C.3     1  UNL1        0.0166
     24 N          12.8663    1.1651    0.6469 N.3     1  UNL1       -0.3279
     25 N           1.3124    3.9181    2.2583 N.ar    1  UNL1       -0.0653
     26 N           5.4205    4.5770    2.6440 N.ar    1  UNL1       -0.1329
     27 C           7.2271    7.8261    4.5458 C.ar    1  UNL1        0.0449
     28 C           6.5070    8.9025    5.1759 C.ar    1  UNL1       -0.0397
     29 C           7.2271    9.9790    5.8060 C.ar    1  UNL1       -0.0600
     30 C           6.5070   11.0554    6.4360 C.ar    1  UNL1       -0.0611
     31 C           7.2271   12.1318    7.0661 C.ar    1  UNL1       -0.0520
     32 C           4.9471    4.4927    2.5947 C.ar    1  UNL1        0.0104
     33 N           8.6173    3.4760    1.9995 N.pl3   1  UNL1       -0.3116
     34 C           9.3523    4.5746    2.6426 C.ar    1  UNL1        0.0408
     35 C          10.7925    4.5746    2.6426 C.ar    1  UNL1       -0.0399
     36 C          11.5126    5.6510    3.2727 C.ar    1  UNL1       -0.0600
     37 C          12.9528    5.6510    3.2727 C.ar    1  UNL1       -0.0610
     38 C          13.6729    6.7275    3.9027 C.ar    1  UNL1       -0.0506
     39 C           7.1473    1.2039    0.6696 C.ar    1  UNL1        0.0265
     40 H           0.5833   -0.7914   -0.4983 H       1  UNL1        0.0231
     41 H           0.5833    0.9558   -0.4879 H       1  UNL1        0.0231
     42 H           0.5833    0.0732    1.0201 H       1  UNL1        0.0231
     43 H           2.8167    0.0852   -0.9975 H       1  UNL1        0.0296
     44 H           2.8167   -0.7975    0.5104 H       1  UNL1        0.0296
     45 H           2.6100    1.3099    1.7440 H       1  UNL1        0.0723
     46 H           2.6100    2.1926    0.2360 H       1  UNL1        0.0723
     47 H           4.6654    7.6041    3.4036 H       1  UNL1        0.0534
     48 H           4.6654    6.7214    4.9115 H       1  UNL1        0.0534
     49 H           2.4289    5.9405    3.4421 H       1  UNL1        0.0846
     50 H           3.4389    3.0905    0.7616 H       1  UNL1        0.0532
     51 H           3.4389    2.2078    2.2695 H       1  UNL1        0.0532
     52 H           5.1606    3.7128    3.1505 H       1  UNL1        0.0578
     53 H           5.1606    4.5955    1.6425 H       1  UNL1        0.0578
     54 H           7.4085    3.2217    2.8630 H       1  UNL1        0.0583
     55 H           7.4085    4.1044    1.3550 H       1  UNL1        0.0583
     56 H           8.0930    2.0736    0.1664 H       1  UNL1        0.0583
     57 H           8.0930    1.1910    1.6743 H       1  UNL1        0.0583
     58 H          10.3410    1.5825   -0.1211 H       1  UNL1        0.0572
     59 H          10.3410    0.6998    1.3869 H       1  UNL1        0.0572
     60 H          12.0627    2.2048    2.2678 H       1  UNL1        0.0444
     61 H          12.0627    3.0875    0.7598 H       1  UNL1        0.0444
     62 H          12.7218    0.2517    1.0772 H       1  UNL1        0.1183
     63 H          13.8182    1.4814    0.8320 H       1  UNL1        0.1183
     64 H           5.4750    8.9025    5.1759 H       1  UNL1        0.0636
     65 H           8.2591    9.9790    5.8060 H       1  UNL1        0.0618
     66 H           5.4750   11.0554    6.4360 H       1  UNL1        0.0618
     67 H           7.6174   12.9563    7.5487 H       1  UNL1        0.0624
     68 H           9.1095    2.7401    1.5688 H       1  UNL1        0.1522
     69 H          11.3085    3.8033    2.1911 H       1  UNL1        0.0636
     70 H          10.9966    6.4224    3.7242 H       1  UNL1        0.0618
     71 H          13.4688    4.8797    2.8212 H       1  UNL1        0.0618
     72 H          14.3051    7.4314    4.3148 H       1  UNL1        0.0625
@<TRIPOS>BOND
     1     1     2    1
     2     2     3    1
     3     3     4    1
     4     4     5    1
     5     5     6    2
     6     6     7    1
     7     7     8    2
     8     8     9    1
     9     9    10    2
    10     9    11   am
    11    11    12    1
    12    12    13    1
    13    13    14   ar
    14    14    15   ar
    15    15    16    1
    16    16    17    1
    17    17    18    1
    18    18    19    1
    19    19    20    1
    20    20    21    1
    21    21    22    1
    22    22    23    1
    23    23    24    1
    24    15    25   ar
    25    25    26   ar
    26    13    26   ar
    27    11    27    1
    28    27    28   ar
    29    28    29   ar
    30    29    30   ar
    31    30    31   ar
    32    31    32   ar
    33    27    32   ar
    34     8    32    1
    35     7    33    1
    36    33    34    1
    37    34    35   ar
    38    35    36   ar
    39    36    37   ar
    40    37    38   ar
    41    38    39   ar
    42    34    39   ar
    43     6    39    1
    44     1    40    1
    45     1    41    1
    46     1    42    1
    47     2    43    1
    48     2    44    1
    49     3    45    1
    50     3    46    1
    51    12    47    1
    52    12    48    1
    53    14    49    1
    54    16    50    1
    55    16    51    1
    56    17    52    1
    57    17    53    1
    58    19    54    1
    59    19    55    1
    60    20    56    1
    61    20    57    1
    62    22    58    1
    63    22    59    1
    64    23    60    1
    65    23    61    1
    66    24    62    1
    67    24    63    1
    68    28    64    1
    69    29    65    1
    70    30    66    1
    71    31    67    1
    72    33    68    1
    73    35    69    1
    74    36    70    1
    75    37    71    1
    76    38    72    1
