@<TRIPOS>MOLECULE
*****
 70 72 0 0 0
SMALL
GASTEIGER

@<TRIPOS>ATOM
      1 C           1.0883   -0.0348   -0.0316 C.3     1  UNL1       -0.0652
      2 C           2.6083   -0.0348   -0.0316 C.3     1  UNL1       -0.0545
      3 C           3.1149    0.5730    1.2662 C.3     1  UNL1       -0.0373
      4 C           4.6349    0.5730    1.2662 C.3     1  UNL1        0.0165
      5 N           5.1249    1.1607    2.5213 N.am    1  UNL1       -0.2811
      6 C           4.1697    1.6346    3.5332 C.3     1  UNL1        0.0412
      7 C           2.7512    1.4030    3.0386 C.ar    1  UNL1       -0.0301
      8 C           1.6310    1.7869    3.8583 C.ar    1  UNL1       -0.0571
      9 C           0.2870    1.5674    3.3897 C.ar    1  UNL1       -0.0615
     10 C          -0.8332    1.9513    4.2095 C.ar    1  UNL1       -0.0617
     11 C          -2.1772    1.7318    3.7408 C.ar    1  UNL1       -0.0615
     12 C           2.5273    0.7996    1.7502 C.ar    1  UNL1       -0.0571
     13 C           6.5702    1.2747    2.7646 C.2     1  UNL1        0.3067
     14 O           7.3960    0.8650    1.8898 O.2     1  UNL1       -0.2523
     15 N           7.0602    1.8624    4.0197 N.am    1  UNL1       -0.2693
     16 C           8.5054    1.9763    4.2630 C.ar    1  UNL1        0.0350
     17 C           8.9855    2.5522    5.4926 C.ar    1  UNL1       -0.0370
     18 C          10.4014    2.6638    5.7310 C.ar    1  UNL1       -0.0182
     19 C          10.8815    3.2397    6.9607 C.ar    1  UNL1        0.1206
     20 O           9.9587    3.6974    7.9381 O.3     1  UNL1       -0.4920
     21 C           8.5626    3.5874    7.7031 C.3     1  UNL1        0.0896
     22 C           7.8026    4.1456    8.8952 C.3     1  UNL1       -0.0170
     23 C           6.3082    4.0278    8.6437 C.3     1  UNL1       -0.0302
     24 C           5.5482    4.5861    9.8358 C.3     1  UNL1        0.0433
     25 N           4.1030    4.4722    9.5925 N.ar    1  UNL1       -0.2515
     26 C           3.1979    4.9212   10.5513 C.ar    1  UNL1        0.0487
     27 C           1.7819    4.8096   10.3129 C.ar    1  UNL1        0.0840
     28 C           1.2753    4.2018    9.0151 C.3     1  UNL1        0.0052
     29 C           2.4575    3.7966    8.1499 C.3     1  UNL1       -0.0014
     30 N           1.9675    3.2088    6.8948 N.3     1  UNL1       -0.3296
     31 N           0.8768    5.2585   11.2717 N.ar    1  UNL1       -0.1345
     32 N           3.6545    3.9342    8.4438 N.ar    1  UNL1       -0.0655
     33 C          12.2974    3.3513    7.1990 C.ar    1  UNL1       -0.0182
     34 C           9.4413    1.5121    3.2716 C.ar    1  UNL1       -0.0370
     35 H           0.7316   -0.4626   -0.9452 H       1  UNL1        0.0230
     36 H           0.7316    0.9703    0.0547 H       1  UNL1        0.0230
     37 H           0.7316   -0.6121    0.7957 H       1  UNL1        0.0230
     38 H           2.9649    0.5425   -0.8589 H       1  UNL1        0.0263
     39 H           2.9649   -1.0399   -0.1179 H       1  UNL1        0.0263
     40 H           2.7582   -0.0043    2.0935 H       1  UNL1        0.0280
     41 H           2.7582    1.5781    1.3525 H       1  UNL1        0.0280
     42 H           4.9916    1.1502    0.4389 H       1  UNL1        0.0465
     43 H           4.9916   -0.4322    1.1799 H       1  UNL1        0.0465
     44 H           4.3213    2.6798    3.7050 H       1  UNL1        0.0514
     45 H           4.3213    1.0974    4.4460 H       1  UNL1        0.0514
     46 H           1.7914    2.2192    4.7816 H       1  UNL1        0.0621
     47 H           0.1266    1.1350    2.4665 H       1  UNL1        0.0618
     48 H          -0.6728    2.3837    5.1327 H       1  UNL1        0.0618
     49 H          -3.2086    1.7471    3.7733 H       1  UNL1        0.0618
     50 H           3.0119    0.4132    0.9250 H       1  UNL1        0.0621
     51 H           6.4204    2.1798    4.6974 H       1  UNL1        0.1564
     52 H           8.3148    2.8849    6.2030 H       1  UNL1        0.0637
     53 H          11.0720    2.3312    5.0206 H       1  UNL1        0.0655
     54 H           8.3041    2.5582    7.5655 H       1  UNL1        0.0696
     55 H           8.3041    4.1406    6.8245 H       1  UNL1        0.0696
     56 H           8.0611    5.1748    9.0328 H       1  UNL1        0.0298
     57 H           8.0611    3.5924    9.7739 H       1  UNL1        0.0298
     58 H           6.0497    2.9987    8.5061 H       1  UNL1        0.0284
     59 H           6.0497    4.5811    7.7650 H       1  UNL1        0.0284
     60 H           5.8067    5.6153    9.9734 H       1  UNL1        0.0509
     61 H           5.8067    4.0329   10.7144 H       1  UNL1        0.0509
     62 H           3.5419    5.3338   11.4324 H       1  UNL1        0.0845
     63 H           0.6808    4.9217    8.4923 H       1  UNL1        0.0342
     64 H           0.6808    3.3393    9.2334 H       1  UNL1        0.0342
     65 H           3.0519    3.0767    8.6727 H       1  UNL1        0.0425
     66 H           3.0519    4.6591    7.9317 H       1  UNL1        0.0425
     67 H           1.4008    2.3866    7.1029 H       1  UNL1        0.1182
     68 H           2.7608    2.9369    6.3142 H       1  UNL1        0.1182
     69 H          13.1572    3.5934    7.7159 H       1  UNL1        0.0655
     70 H           9.5057    1.0753    2.3389 H       1  UNL1        0.0637
@<TRIPOS>BOND
     1     1     2    1
     2     2     3    1
     3     3     4    1
     4     4     5    1
     5     5     6    1
     6     6     7    1
     7     7     8   ar
     8     8     9   ar
     9     9    10   ar
    10    10    11   ar
    11    11    12   ar
    12     7    12   ar
    13     5    13   am
    14    13    14    2
    15    13    15   am
    16    15    16    1
    17    16    17   ar
    18    17    18   ar
    19    18    19   ar
    20    19    20    1
    21    20    21    1
    22    21    22    1
    23    22    23    1
    24    23    24    1
    25    24    25    1
    26    25    26   ar
    27    26    27   ar
    28    27    28    1
    29    28    29    1
    30    29    30    1
    31    27    31   ar
    32    31    32   ar
    33    25    32   ar
    34    19    33   ar
    35    33    34   ar
    36    16    34   ar
    37     1    35    1
    38     1    36    1
    39     1    37    1
    40     2    38    1
    41     2    39    1
    42     3    40    1
    43     3    41    1
    44     4    42    1
    45     4    43    1
    46     6    44    1
    47     6    45    1
    48     8    46    1
    49     9    47    1
    50    10    48    1
    51    11    49    1
    52    12    50    1
    53    15    51    1
    54    17    52    1
    55    18    53    1
    56    21    54    1
    57    21    55    1
    58    22    56    1
    59    22    57    1
    60    23    58    1
    61    23    59    1
    62    24    60    1
    63    24    61    1
    64    26    62    1
    65    28    63    1
    66    28    64    1
    67    29    65    1
    68    29    66    1
    69    30    67    1
    70    30    68    1
    71    33    69    1
    72    34    70    1
