@<TRIPOS>MOLECULE
*****
 25 26 0 0 0
SMALL
GASTEIGER

@<TRIPOS>ATOM
      1 C           1.0864    0.0417    0.0282 C.3     1  UNL1        0.0087
      2 C           2.6064    0.0417    0.0282 C.3     1  UNL1        0.0118
      3 N           3.0964   -1.0981   -0.7602 N.3     1  UNL1       -0.2946
      4 C           2.6064   -0.9852   -2.1415 C.3     1  UNL1        0.0354
      5 C           1.0864   -0.9852   -2.1415 C.3     1  UNL1        0.0128
      6 N           0.5964   -0.8723   -3.5228 N.3     1  UNL1       -0.3129
      7 C           3.1130   -2.1638   -2.9568 C.3     1  UNL1        0.0128
      8 C           4.5664   -1.0981   -0.7602 C.3     1  UNL1        0.0118
      9 C           5.0730   -2.2767   -1.5755 C.3     1  UNL1        0.0087
     10 N           0.5964    1.1816    0.8167 N.3     1  UNL1       -0.3136
     11 H           0.7297   -0.8701    0.4598 H       1  UNL1        0.0437
     12 H           0.7297    0.1239   -0.9772 H       1  UNL1        0.0437
     13 H           2.9630   -0.0404    1.0337 H       1  UNL1        0.0439
     14 H           2.9630    0.9536   -0.4033 H       1  UNL1        0.0439
     15 H           2.9630   -0.0733   -2.5731 H       1  UNL1        0.0488
     16 H           0.7297   -0.1555   -1.5676 H       1  UNL1        0.0440
     17 H           0.7297   -1.8970   -1.7100 H       1  UNL1        0.0440
     18 H           0.5803    0.0356   -3.9874 H       1  UNL1        0.1220
     19 H           3.9434   -2.0448   -3.6210 H       1  UNL1        0.0440
     20 H           3.4346   -3.1624   -2.7467 H       1  UNL1        0.0440
     21 H           4.9230   -1.1803    0.2452 H       1  UNL1        0.0439
     22 H           4.9230   -0.1862   -1.1918 H       1  UNL1        0.0439
     23 H           5.4107   -3.1991   -1.1513 H       1  UNL1        0.0437
     24 H           5.5750   -2.5969   -2.4645 H       1  UNL1        0.0437
     25 H           0.2745    2.0609    0.4123 H       1  UNL1        0.1220
@<TRIPOS>BOND
     1     1     2    1
     2     2     3    1
     3     3     4    1
     4     4     5    1
     5     5     6    1
     6     6     7    1
     7     4     7    1
     8     3     8    1
     9     8     9    1
    10     9    10    1
    11     1    10    1
    12     1    11    1
    13     1    12    1
    14     2    13    1
    15     2    14    1
    16     4    15    1
    17     5    16    1
    18     5    17    1
    19     6    18    1
    20     7    19    1
    21     7    20    1
    22     8    21    1
    23     8    22    1
    24     9    23    1
    25     9    24    1
    26    10    25    1
