@<TRIPOS>MOLECULE
*****
 49 48 0 0 0
SMALL
GASTEIGER

@<TRIPOS>ATOM
      1 N           1.0961   -0.0041    0.0273 N.3     1  UNL1       -0.3279
      2 C           2.5661   -0.0041    0.0273 C.3     1  UNL1        0.0166
      3 C           3.0728   -0.7605    1.2445 C.3     1  UNL1        0.0600
      4 O           4.4928   -0.7605    1.2445 O.3     1  UNL1       -0.3763
      5 C           4.9661   -1.4671    2.3816 C.3     1  UNL1        0.0711
      6 C           6.4861   -1.4671    2.3816 C.3     1  UNL1        0.0711
      7 O           6.9594   -2.1737    3.5187 O.3     1  UNL1       -0.3752
      8 C           8.3794   -2.1737    3.5187 C.3     1  UNL1        0.0711
      9 C           8.8861   -2.9301    4.7359 C.3     1  UNL1        0.0711
     10 O          10.3061   -2.9301    4.7359 O.3     1  UNL1       -0.3752
     11 C          10.7794   -3.6367    5.8730 C.3     1  UNL1        0.0711
     12 C          12.2994   -3.6367    5.8730 C.3     1  UNL1        0.0711
     13 O          12.7728   -4.3434    7.0101 O.3     1  UNL1       -0.3752
     14 C          14.1928   -4.3434    7.0101 C.3     1  UNL1        0.0711
     15 C          14.6994   -5.0998    8.2273 C.3     1  UNL1        0.0711
     16 O          16.1194   -5.0998    8.2273 O.3     1  UNL1       -0.3760
     17 C          16.5927   -5.8064    9.3644 C.3     1  UNL1        0.0632
     18 C          18.1127   -5.8064    9.3644 C.3     1  UNL1        0.0348
     19 N          18.6027   -6.5379   10.5416 N.am    1  UNL1       -0.3157
     20 C          20.0480   -6.6797   10.7698 C.2     1  UNL1        0.2000
     21 O          20.4716   -7.3121   11.7875 O.2     1  UNL1       -0.2795
     22 H           0.7561    0.5035   -0.7895 H       1  UNL1        0.1183
     23 H           0.7561    0.4495    0.8753 H       1  UNL1        0.1183
     24 H           2.9228    1.0042    0.0600 H       1  UNL1        0.0444
     25 H           2.9228   -0.4799   -0.8623 H       1  UNL1        0.0444
     26 H           2.7161   -1.7687    1.2118 H       1  UNL1        0.0572
     27 H           2.7161   -0.2846    2.1340 H       1  UNL1        0.0572
     28 H           4.6094   -2.4754    2.3489 H       1  UNL1        0.0583
     29 H           4.6094   -0.9913    3.2711 H       1  UNL1        0.0583
     30 H           6.8428   -0.4588    2.4143 H       1  UNL1        0.0583
     31 H           6.8428   -1.9429    1.4920 H       1  UNL1        0.0583
     32 H           8.7361   -1.1654    3.5514 H       1  UNL1        0.0583
     33 H           8.7361   -2.6495    2.6292 H       1  UNL1        0.0583
     34 H           8.5294   -3.9384    4.7032 H       1  UNL1        0.0583
     35 H           8.5294   -2.4543    5.6254 H       1  UNL1        0.0583
     36 H          10.4228   -4.6450    5.8403 H       1  UNL1        0.0583
     37 H          10.4228   -3.1609    6.7626 H       1  UNL1        0.0583
     38 H          12.6561   -2.6285    5.9057 H       1  UNL1        0.0583
     39 H          12.6561   -4.1126    4.9835 H       1  UNL1        0.0583
     40 H          14.5494   -3.3351    7.0428 H       1  UNL1        0.0583
     41 H          14.5494   -4.8192    6.1206 H       1  UNL1        0.0583
     42 H          14.3428   -6.1080    8.1946 H       1  UNL1        0.0583
     43 H          14.3427   -4.6239    9.1169 H       1  UNL1        0.0583
     44 H          16.2361   -6.8147    9.3317 H       1  UNL1        0.0575
     45 H          16.2361   -5.3306   10.2540 H       1  UNL1        0.0575
     46 H          18.4694   -4.7981    9.3972 H       1  UNL1        0.0484
     47 H          18.4694   -6.2822    8.4749 H       1  UNL1        0.0484
     48 H          17.9630   -6.9329   11.1772 H       1  UNL1        0.1485
     49 H          20.7186   -6.2657   10.1035 H       1  UNL1        0.1251
@<TRIPOS>BOND
     1     1     2    1
     2     2     3    1
     3     3     4    1
     4     4     5    1
     5     5     6    1
     6     6     7    1
     7     7     8    1
     8     8     9    1
     9     9    10    1
    10    10    11    1
    11    11    12    1
    12    12    13    1
    13    13    14    1
    14    14    15    1
    15    15    16    1
    16    16    17    1
    17    17    18    1
    18    18    19    1
    19    19    20   am
    20    20    21    2
    21     1    22    1
    22     1    23    1
    23     2    24    1
    24     2    25    1
    25     3    26    1
    26     3    27    1
    27     5    28    1
    28     5    29    1
    29     6    30    1
    30     6    31    1
    31     8    32    1
    32     8    33    1
    33     9    34    1
    34     9    35    1
    35    11    36    1
    36    11    37    1
    37    12    38    1
    38    12    39    1
    39    14    40    1
    40    14    41    1
    41    15    42    1
    42    15    43    1
    43    17    44    1
    44    17    45    1
    45    18    46    1
    46    18    47    1
    47    19    48    1
    48    20    49    1
