@<TRIPOS>MOLECULE
*****
 48 48 0 0 0
SMALL
GASTEIGER

@<TRIPOS>ATOM
      1 C           1.0687    0.0353    0.0634 C.3     1  UNL1       -0.0653
      2 C           2.5887    0.0353    0.0634 C.3     1  UNL1       -0.0559
      3 C           3.0954    1.3885    0.5354 C.3     1  UNL1       -0.0533
      4 C           4.6154    1.3885    0.5354 C.3     1  UNL1       -0.0531
      5 C           5.1221    2.7416    1.0073 C.3     1  UNL1       -0.0531
      6 C           6.6421    2.7416    1.0073 C.3     1  UNL1       -0.0530
      7 C           7.1487    4.0947    1.4792 C.3     1  UNL1       -0.0519
      8 C           8.6687    4.0947    1.4792 C.3     1  UNL1       -0.0402
      9 C           9.1754    5.4479    1.9512 C.3     1  UNL1       -0.0010
     10 N          10.6454    5.4479    1.9512 N.3     1  UNL1       -0.2999
     11 C          11.1354    6.7565    2.4076 C.3     1  UNL1        0.0117
     12 C          12.6554    6.7565    2.4076 C.3     1  UNL1        0.0121
     13 N          13.1454    8.0651    2.8640 N.3     1  UNL1       -0.2932
     14 C          12.6554    8.3242    4.2255 C.3     1  UNL1        0.0544
     15 C          11.1354    8.3242    4.2255 C.2     1  UNL1        0.1342
     16 O          10.4999    8.5299    5.3067 O.2     1  UNL1       -0.2997
     17 C          14.6154    8.0651    2.8640 C.3     1  UNL1        0.0121
     18 C          11.1354    5.1888    0.5897 C.3     1  UNL1        0.0117
     19 H           0.7121   -0.9172   -0.2688 H       1  UNL1        0.0230
     20 H           0.7121    0.7993   -0.5954 H       1  UNL1        0.0230
     21 H           0.7121    0.2239    1.0545 H       1  UNL1        0.0230
     22 H           2.9454   -0.1532   -0.9276 H       1  UNL1        0.0263
     23 H           2.9454   -0.7286    0.7223 H       1  UNL1        0.0263
     24 H           2.7387    1.5770    1.5264 H       1  UNL1        0.0265
     25 H           2.7387    2.1524   -0.1234 H       1  UNL1        0.0265
     26 H           4.9721    1.1999   -0.4557 H       1  UNL1        0.0265
     27 H           4.9721    0.6245    1.1942 H       1  UNL1        0.0265
     28 H           4.7654    2.9302    1.9983 H       1  UNL1        0.0265
     29 H           4.7654    3.5056    0.3485 H       1  UNL1        0.0265
     30 H           6.9987    2.5530    0.0163 H       1  UNL1        0.0265
     31 H           6.9987    1.9776    1.6661 H       1  UNL1        0.0265
     32 H           6.7921    4.2833    2.4703 H       1  UNL1        0.0266
     33 H           6.7921    4.8587    0.8204 H       1  UNL1        0.0266
     34 H           9.0254    3.9062    0.4882 H       1  UNL1        0.0278
     35 H           9.0254    3.3308    2.1380 H       1  UNL1        0.0278
     36 H           8.8187    5.6364    2.9422 H       1  UNL1        0.0426
     37 H           8.8187    6.2119    1.2923 H       1  UNL1        0.0426
     38 H          10.7787    6.9451    3.3986 H       1  UNL1        0.0439
     39 H          10.7787    7.5205    1.7488 H       1  UNL1        0.0439
     40 H          13.0121    6.5679    1.4165 H       1  UNL1        0.0439
     41 H          13.0121    5.9925    3.0664 H       1  UNL1        0.0439
     42 H          13.0120    9.2767    4.5577 H       1  UNL1        0.0502
     43 H          13.0120    7.5602    4.8843 H       1  UNL1        0.0502
     44 H          10.6194    8.1571    3.3475 H       1  UNL1        0.1040
     45 H          15.1830    7.7145    3.7005 H       1  UNL1        0.0439
     46 H          15.4405    8.7040    2.6275 H       1  UNL1        0.0439
     47 H          11.4071    4.1836    0.3435 H       1  UNL1        0.0439
     48 H          10.6389    5.3472   -0.3448 H       1  UNL1        0.0439
@<TRIPOS>BOND
     1     1     2    1
     2     2     3    1
     3     3     4    1
     4     4     5    1
     5     5     6    1
     6     6     7    1
     7     7     8    1
     8     8     9    1
     9     9    10    1
    10    10    11    1
    11    11    12    1
    12    12    13    1
    13    13    14    1
    14    14    15    1
    15    15    16    2
    16    13    17    1
    17    17    18    1
    18    10    18    1
    19     1    19    1
    20     1    20    1
    21     1    21    1
    22     2    22    1
    23     2    23    1
    24     3    24    1
    25     3    25    1
    26     4    26    1
    27     4    27    1
    28     5    28    1
    29     5    29    1
    30     6    30    1
    31     6    31    1
    32     7    32    1
    33     7    33    1
    34     8    34    1
    35     8    35    1
    36     9    36    1
    37     9    37    1
    38    11    38    1
    39    11    39    1
    40    12    40    1
    41    12    41    1
    42    14    42    1
    43    14    43    1
    44    15    44    1
    45    17    45    1
    46    17    46    1
    47    18    47    1
    48    18    48    1
