@<TRIPOS>MOLECULE
*****
 47 47 0 0 0
SMALL
GASTEIGER

@<TRIPOS>ATOM
      1 N           0.9011    0.0056    0.0139 N.3     1  UNL1       -0.3279
      2 C           2.3711    0.0056    0.0139 C.3     1  UNL1        0.0166
      3 C           2.8778   -0.6750    1.2751 C.3     1  UNL1        0.0600
      4 O           4.2978   -0.6750    1.2751 O.3     1  UNL1       -0.3763
      5 C           4.7711   -1.3107    2.4533 C.3     1  UNL1        0.0711
      6 C           6.2911   -1.3107    2.4533 C.3     1  UNL1        0.0711
      7 O           6.7644   -1.9465    3.6315 O.3     1  UNL1       -0.3752
      8 C           8.1844   -1.9465    3.6315 C.3     1  UNL1        0.0711
      9 C           8.6911   -2.6270    4.8927 C.3     1  UNL1        0.0711
     10 O          10.1111   -2.6270    4.8927 O.3     1  UNL1       -0.3757
     11 C          10.5844   -3.2628    6.0709 C.3     1  UNL1        0.0673
     12 C          12.1044   -3.2628    6.0709 C.3     1  UNL1        0.0665
     13 N          12.5944   -3.9209    7.2906 N.ar    1  UNL1       -0.2492
     14 C          13.9638   -4.0418    7.5146 C.ar    1  UNL1        0.0487
     15 C          14.4439   -4.6865    8.7096 C.ar    1  UNL1        0.0829
     16 C          13.4561   -5.2352    9.7263 C.3     1  UNL1       -0.0051
     17 C          12.0376   -4.9758    9.2457 C.3     1  UNL1       -0.0242
     18 C          11.0499   -5.5244   10.2624 C.3     1  UNL1        0.0446
     19 O           9.7247   -5.2822    9.8134 O.3     1  UNL1       -0.3950
     20 N          15.8132   -4.8074    8.9336 N.ar    1  UNL1       -0.1345
     21 N          11.7201   -4.4065    8.1906 N.ar    1  UNL1       -0.0654
     22 H           0.5611    0.4622   -0.8324 H       1  UNL1        0.1183
     23 H           0.5611    0.5102    0.8326 H       1  UNL1        0.1183
     24 H           2.7278    1.0139   -0.0151 H       1  UNL1        0.0444
     25 H           2.7278   -0.5238   -0.8448 H       1  UNL1        0.0444
     26 H           2.5211   -1.6834    1.3042 H       1  UNL1        0.0572
     27 H           2.5211   -0.1456    2.1339 H       1  UNL1        0.0572
     28 H           4.4145   -2.3191    2.4824 H       1  UNL1        0.0583
     29 H           4.4145   -0.7814    3.3121 H       1  UNL1        0.0583
     30 H           6.6478   -0.3023    2.4243 H       1  UNL1        0.0583
     31 H           6.6478   -1.8401    1.5946 H       1  UNL1        0.0583
     32 H           8.5411   -0.9381    3.6025 H       1  UNL1        0.0583
     33 H           8.5411   -2.4758    2.7728 H       1  UNL1        0.0583
     34 H           8.3344   -3.6354    4.9218 H       1  UNL1        0.0583
     35 H           8.3344   -2.0977    5.7515 H       1  UNL1        0.0583
     36 H          10.2278   -4.2711    6.1000 H       1  UNL1        0.0578
     37 H          10.2278   -2.7334    6.9297 H       1  UNL1        0.0578
     38 H          12.4611   -2.2544    6.0419 H       1  UNL1        0.0532
     39 H          12.4611   -3.7921    5.2122 H       1  UNL1        0.0532
     40 H          14.6344   -3.6693    6.8243 H       1  UNL1        0.0845
     41 H          13.6077   -4.7507   10.6682 H       1  UNL1        0.0330
     42 H          13.6077   -6.2884    9.8385 H       1  UNL1        0.0330
     43 H          11.8860   -5.4603    8.3038 H       1  UNL1        0.0291
     44 H          11.8860   -3.9226    9.1335 H       1  UNL1        0.0291
     45 H          11.2015   -5.0400   11.2043 H       1  UNL1        0.0557
     46 H          11.2015   -6.5777   10.3746 H       1  UNL1        0.0557
     47 H           9.5873   -4.3273    9.7117 H       1  UNL1        0.2094
@<TRIPOS>BOND
     1     1     2    1
     2     2     3    1
     3     3     4    1
     4     4     5    1
     5     5     6    1
     6     6     7    1
     7     7     8    1
     8     8     9    1
     9     9    10    1
    10    10    11    1
    11    11    12    1
    12    12    13    1
    13    13    14   ar
    14    14    15   ar
    15    15    16    1
    16    16    17    1
    17    17    18    1
    18    18    19    1
    19    15    20   ar
    20    20    21   ar
    21    13    21   ar
    22     1    22    1
    23     1    23    1
    24     2    24    1
    25     2    25    1
    26     3    26    1
    27     3    27    1
    28     5    28    1
    29     5    29    1
    30     6    30    1
    31     6    31    1
    32     8    32    1
    33     8    33    1
    34     9    34    1
    35     9    35    1
    36    11    36    1
    37    11    37    1
    38    12    38    1
    39    12    39    1
    40    14    40    1
    41    16    41    1
    42    16    42    1
    43    17    43    1
    44    17    44    1
    45    18    45    1
    46    18    46    1
    47    19    47    1
