@<TRIPOS>MOLECULE
*****
 95 97 0 0 0
SMALL
GASTEIGER

@<TRIPOS>ATOM
      1 C           0.9486   -0.0603   -0.0610 C.3     1  UNL1       -0.0652
      2 C           2.4686   -0.0603   -0.0610 C.3     1  UNL1       -0.0545
      3 C           2.9753   -1.4772   -0.2760 C.3     1  UNL1       -0.0373
      4 C           4.4953   -1.4772   -0.2760 C.3     1  UNL1        0.0165
      5 N           4.9853   -2.8474   -0.4839 N.am    1  UNL1       -0.2811
      6 C           4.0300   -3.9521   -0.6515 C.3     1  UNL1        0.0412
      7 C           2.6116   -3.4121   -0.5696 C.ar    1  UNL1       -0.0301
      8 C           1.4914   -4.3071   -0.7054 C.ar    1  UNL1       -0.0571
      9 C           0.1474   -3.7955   -0.6278 C.ar    1  UNL1       -0.0615
     10 C          -0.9728   -4.6904   -0.7636 C.ar    1  UNL1       -0.0617
     11 C          -2.3168   -4.1788   -0.6859 C.ar    1  UNL1       -0.0615
     12 C           2.3877   -2.0055   -0.3562 C.ar    1  UNL1       -0.0571
     13 C           6.4305   -3.1130   -0.5242 C.2     1  UNL1        0.3067
     14 O           7.2564   -2.1580   -0.3793 O.2     1  UNL1       -0.2523
     15 N           6.9205   -4.4833   -0.7321 N.am    1  UNL1       -0.2693
     16 C           8.3658   -4.7488   -0.7724 C.ar    1  UNL1        0.0350
     17 C           8.8459   -6.0913   -0.9761 C.ar    1  UNL1       -0.0370
     18 C          10.2618   -6.3515   -1.0156 C.ar    1  UNL1       -0.0182
     19 C          10.7419   -7.6940   -1.2193 C.ar    1  UNL1        0.1206
     20 O           9.8191   -8.7611   -1.3812 O.3     1  UNL1       -0.4920
     21 C           8.4230   -8.5045   -1.3423 C.3     1  UNL1        0.0896
     22 C           7.6630   -9.8060   -1.5398 C.3     1  UNL1       -0.0186
     23 C           6.1686   -9.5314   -1.4981 C.3     1  UNL1       -0.0500
     24 C           5.4086  -10.8328   -1.6956 C.3     1  UNL1       -0.0530
     25 C           3.9142  -10.5582   -1.6539 C.3     1  UNL1       -0.0531
     26 C           3.1542  -11.8597   -1.8514 C.3     1  UNL1       -0.0531
     27 C           1.6598  -11.5851   -1.8097 C.3     1  UNL1       -0.0531
     28 C           0.8998  -12.8865   -2.0072 C.3     1  UNL1       -0.0531
     29 C          -0.5946  -12.6119   -1.9655 C.3     1  UNL1       -0.0530
     30 C          -1.3546  -13.9134   -2.1630 C.3     1  UNL1       -0.0514
     31 C          -2.8490  -13.6388   -2.1213 C.3     1  UNL1       -0.0333
     32 C          -3.6090  -14.9402   -2.3188 C.3     1  UNL1        0.0432
     33 N          -5.0543  -14.6747   -2.2785 N.ar    1  UNL1       -0.2515
     34 C          -5.9594  -15.7213   -2.4373 C.ar    1  UNL1        0.0486
     35 C          -7.3753  -15.4611   -2.3978 C.ar    1  UNL1        0.0828
     36 C          -7.8820  -14.0443   -2.1829 C.3     1  UNL1       -0.0074
     37 C          -6.6998  -13.0997   -2.0395 C.3     1  UNL1       -0.0504
     38 C          -7.2064  -11.6829   -1.8246 C.3     1  UNL1       -0.0649
     39 N          -8.2804  -16.5078   -2.5567 N.ar    1  UNL1       -0.1345
     40 N          -5.5028  -13.4205   -2.0882 N.ar    1  UNL1       -0.0655
     41 C          12.1578   -7.9542   -1.2588 C.ar    1  UNL1       -0.0182
     42 C           9.3017   -3.6666   -0.6082 C.ar    1  UNL1       -0.0370
     43 H           0.5920    0.9371    0.0903 H       1  UNL1        0.0230
     44 H           0.5920   -0.6901    0.7271 H       1  UNL1        0.0230
     45 H           0.5920   -0.4280   -1.0005 H       1  UNL1        0.0230
     46 H           2.8253    0.3073    0.8784 H       1  UNL1        0.0263
     47 H           2.8253    0.5694   -0.8491 H       1  UNL1        0.0263
     48 H           2.6186   -1.8448   -1.2154 H       1  UNL1        0.0280
     49 H           2.6186   -2.1069    0.5121 H       1  UNL1        0.0280
     50 H           4.8520   -1.1095    0.6634 H       1  UNL1        0.0465
     51 H           4.8520   -0.8474   -1.0641 H       1  UNL1        0.0465
     52 H           4.1817   -4.6753    0.1224 H       1  UNL1        0.0514
     53 H           4.1817   -4.4131   -1.6051 H       1  UNL1        0.0514
     54 H           1.6518   -5.3150   -0.8583 H       1  UNL1        0.0621
     55 H          -0.0130   -2.7875   -0.4748 H       1  UNL1        0.0618
     56 H          -0.8124   -5.6984   -0.9165 H       1  UNL1        0.0618
     57 H          -3.3482   -4.2143   -0.6913 H       1  UNL1        0.0618
     58 H           2.8723   -1.1047   -0.2195 H       1  UNL1        0.0621
     59 H           6.2808   -5.2231   -0.8444 H       1  UNL1        0.1564
     60 H           8.1752   -6.8668   -1.0938 H       1  UNL1        0.0637
     61 H          10.9324   -5.5760   -0.8979 H       1  UNL1        0.0655
     62 H           8.1645   -7.8187   -2.1219 H       1  UNL1        0.0696
     63 H           8.1645   -8.0808   -0.3944 H       1  UNL1        0.0696
     64 H           7.9215  -10.4918   -0.7602 H       1  UNL1        0.0298
     65 H           7.9215  -10.2296   -2.4877 H       1  UNL1        0.0298
     66 H           5.9101   -8.8456   -2.2777 H       1  UNL1        0.0266
     67 H           5.9101   -9.1077   -0.5502 H       1  UNL1        0.0266
     68 H           5.6671  -11.5186   -0.9160 H       1  UNL1        0.0265
     69 H           5.6671  -11.2565   -2.6435 H       1  UNL1        0.0265
     70 H           3.6557   -9.8724   -2.4335 H       1  UNL1        0.0265
     71 H           3.6557  -10.1345   -0.7060 H       1  UNL1        0.0265
     72 H           3.4127  -12.5455   -1.0718 H       1  UNL1        0.0265
     73 H           3.4127  -12.2834   -2.7993 H       1  UNL1        0.0265
     74 H           1.4013  -10.8993   -2.5893 H       1  UNL1        0.0265
     75 H           1.4013  -11.1614   -0.8618 H       1  UNL1        0.0265
     76 H           1.1583  -13.5723   -1.2276 H       1  UNL1        0.0265
     77 H           1.1583  -13.3102   -2.9551 H       1  UNL1        0.0265
     78 H          -0.8531  -11.9261   -2.7451 H       1  UNL1        0.0265
     79 H          -0.8531  -12.1882   -1.0176 H       1  UNL1        0.0265
     80 H          -1.0961  -14.5992   -1.3834 H       1  UNL1        0.0266
     81 H          -1.0961  -14.3371   -3.1109 H       1  UNL1        0.0266
     82 H          -3.1075  -12.9530   -2.9009 H       1  UNL1        0.0283
     83 H          -3.1075  -13.2151   -1.1734 H       1  UNL1        0.0283
     84 H          -3.3505  -15.6260   -1.5392 H       1  UNL1        0.0509
     85 H          -3.3505  -15.3639   -3.2667 H       1  UNL1        0.0509
     86 H          -5.6154  -16.6833   -2.5833 H       1  UNL1        0.0845
     87 H          -8.4764  -14.0091   -1.2939 H       1  UNL1        0.0329
     88 H          -8.4764  -13.7470   -3.0214 H       1  UNL1        0.0329
     89 H          -6.1053  -13.1349   -2.9285 H       1  UNL1        0.0266
     90 H          -6.1053  -13.3970   -1.2010 H       1  UNL1        0.0266
     91 H          -7.8009  -11.3856   -2.6631 H       1  UNL1        0.0230
     92 H          -6.3742  -11.0179   -1.7237 H       1  UNL1        0.0230
     93 H          -7.8009  -11.6477   -0.9356 H       1  UNL1        0.0230
     94 H          13.0176   -8.5185   -1.3444 H       1  UNL1        0.0655
     95 H           9.3661   -2.6482   -0.4537 H       1  UNL1        0.0637
@<TRIPOS>BOND
     1     1     2    1
     2     2     3    1
     3     3     4    1
     4     4     5    1
     5     5     6    1
     6     6     7    1
     7     7     8   ar
     8     8     9   ar
     9     9    10   ar
    10    10    11   ar
    11    11    12   ar
    12     7    12   ar
    13     5    13   am
    14    13    14    2
    15    13    15   am
    16    15    16    1
    17    16    17   ar
    18    17    18   ar
    19    18    19   ar
    20    19    20    1
    21    20    21    1
    22    21    22    1
    23    22    23    1
    24    23    24    1
    25    24    25    1
    26    25    26    1
    27    26    27    1
    28    27    28    1
    29    28    29    1
    30    29    30    1
    31    30    31    1
    32    31    32    1
    33    32    33    1
    34    33    34   ar
    35    34    35   ar
    36    35    36    1
    37    36    37    1
    38    37    38    1
    39    35    39   ar
    40    39    40   ar
    41    33    40   ar
    42    19    41   ar
    43    41    42   ar
    44    16    42   ar
    45     1    43    1
    46     1    44    1
    47     1    45    1
    48     2    46    1
    49     2    47    1
    50     3    48    1
    51     3    49    1
    52     4    50    1
    53     4    51    1
    54     6    52    1
    55     6    53    1
    56     8    54    1
    57     9    55    1
    58    10    56    1
    59    11    57    1
    60    12    58    1
    61    15    59    1
    62    17    60    1
    63    18    61    1
    64    21    62    1
    65    21    63    1
    66    22    64    1
    67    22    65    1
    68    23    66    1
    69    23    67    1
    70    24    68    1
    71    24    69    1
    72    25    70    1
    73    25    71    1
    74    26    72    1
    75    26    73    1
    76    27    74    1
    77    27    75    1
    78    28    76    1
    79    28    77    1
    80    29    78    1
    81    29    79    1
    82    30    80    1
    83    30    81    1
    84    31    82    1
    85    31    83    1
    86    32    84    1
    87    32    85    1
    88    34    86    1
    89    36    87    1
    90    36    88    1
    91    37    89    1
    92    37    90    1
    93    38    91    1
    94    38    92    1
    95    38    93    1
    96    41    94    1
    97    42    95    1
