@<TRIPOS>MOLECULE
*****
 16 15 0 0 0
SMALL
GASTEIGER

@<TRIPOS>ATOM
      1 C           0.9758    0.0769   -0.0592 C.3     1  UNL1        0.0365
      2 O           2.3958    0.0769   -0.0592 O.3     1  UNL1       -0.3807
      3 C           2.8691    1.2795   -0.6474 C.3     1  UNL1        0.0706
      4 C           4.3891    1.2795   -0.6474 C.3     1  UNL1        0.0706
      5 O           4.8624    2.4822   -1.2355 O.3     1  UNL1       -0.3807
      6 C           6.2824    2.4822   -1.2355 C.3     1  UNL1        0.0365
      7 H           0.6191   -0.8294    0.3840 H       1  UNL1        0.0524
      8 H           0.6191    0.1462   -1.0656 H       1  UNL1        0.0524
      9 H           0.6191    0.9138    0.5040 H       1  UNL1        0.0524
     10 H           2.5124    2.1165   -0.0841 H       1  UNL1        0.0582
     11 H           2.5124    1.3488   -1.6538 H       1  UNL1        0.0582
     12 H           4.7458    0.4426   -1.2106 H       1  UNL1        0.0582
     13 H           4.7458    1.2102    0.3591 H       1  UNL1        0.0582
     14 H           6.6391    3.3885   -1.6787 H       1  UNL1        0.0524
     15 H           6.6391    1.6453   -1.7988 H       1  UNL1        0.0524
     16 H           6.6391    2.4129   -0.2291 H       1  UNL1        0.0524
@<TRIPOS>BOND
     1     1     2    1
     2     2     3    1
     3     3     4    1
     4     4     5    1
     5     5     6    1
     6     1     7    1
     7     1     8    1
     8     1     9    1
     9     3    10    1
    10     3    11    1
    11     4    12    1
    12     4    13    1
    13     6    14    1
    14     6    15    1
    15     6    16    1
