@<TRIPOS>MOLECULE
*****
 39 40 0 0 0
SMALL
GASTEIGER

@<TRIPOS>ATOM
      1 C           0.9810   -0.0294    0.0937 C.3     1  UNL1       -0.0127
      2 N           2.4510   -0.0294    0.0937 N.3     1  UNL1       -0.3029
      3 C           2.9410    1.0906    0.9101 C.3     1  UNL1        0.0114
      4 C           4.4610    1.0906    0.9101 C.3     1  UNL1        0.0117
      5 N           4.9510    2.2105    1.7264 N.3     1  UNL1       -0.2996
      6 C           4.4610    2.0635    3.1046 C.3     1  UNL1        0.0018
      7 C           2.9410    2.0635    3.1045 C.3     1  UNL1       -0.0281
      8 C           2.4343    1.9115    4.5295 C.3     1  UNL1       -0.0467
      9 C           0.9143    1.9115    4.5295 C.3     1  UNL1       -0.0266
     10 C           0.4077    1.7594    5.9545 C.3     1  UNL1        0.0553
     11 O           0.8810    2.8413    6.7431 O.3     1  UNL1       -0.3918
     12 C          -1.1123    1.7594    5.9545 C.3     1  UNL1       -0.0266
     13 C           2.4343    0.9054    2.2604 C.3     1  UNL1       -0.0467
     14 C           6.4210    2.2105    1.7264 C.3     1  UNL1        0.0117
     15 C           2.9410    0.1176   -1.2844 C.3     1  UNL1        0.0114
     16 H           0.6243   -0.1364    1.0968 H       1  UNL1        0.0391
     17 H           0.6243   -0.8446   -0.5006 H       1  UNL1        0.0391
     18 H           0.6243    0.8928   -0.3152 H       1  UNL1        0.0391
     19 H           2.5843    0.9835    1.9132 H       1  UNL1        0.0439
     20 H           2.5843    2.0128    0.5012 H       1  UNL1        0.0439
     21 H           4.8177    1.1976   -0.0931 H       1  UNL1        0.0439
     22 H           4.8177    0.1683    1.3189 H       1  UNL1        0.0439
     23 H           4.8177    2.8787    3.6988 H       1  UNL1        0.0429
     24 H           4.8177    1.1413    3.5134 H       1  UNL1        0.0429
     25 H           2.5843    2.9857    2.6957 H       1  UNL1        0.0313
     26 H           2.7910    2.7267    5.1238 H       1  UNL1        0.0269
     27 H           2.7910    0.9892    4.9384 H       1  UNL1        0.0269
     28 H           0.5577    1.0963    3.9353 H       1  UNL1        0.0290
     29 H           0.5577    2.8337    4.1206 H       1  UNL1        0.0290
     30 H           0.7643    0.8372    6.3634 H       1  UNL1        0.0593
     31 H           0.5577    3.6774    6.3725 H       1  UNL1        0.2098
     32 H          -1.6791    2.6660    5.9973 H       1  UNL1        0.0290
     33 H          -1.9356    1.2721    6.4338 H       1  UNL1        0.0290
     34 H           2.1569    1.1129    1.2480 H       1  UNL1        0.0269
     35 H           2.9300   -0.0062    1.9994 H       1  UNL1        0.0269
     36 H           6.9886    1.6323    2.4253 H       1  UNL1        0.0439
     37 H           7.2461    2.8906    1.6854 H       1  UNL1        0.0439
     38 H           3.2127   -0.7730   -1.8116 H       1  UNL1        0.0439
     39 H           2.4445    0.5403   -2.1328 H       1  UNL1        0.0439
@<TRIPOS>BOND
     1     1     2    1
     2     2     3    1
     3     3     4    1
     4     4     5    1
     5     5     6    1
     6     6     7    1
     7     7     8    1
     8     8     9    1
     9     9    10    1
    10    10    11    1
    11    10    12    1
    12    12    13    1
    13     7    13    1
    14     5    14    1
    15    14    15    1
    16     2    15    1
    17     1    16    1
    18     1    17    1
    19     1    18    1
    20     3    19    1
    21     3    20    1
    22     4    21    1
    23     4    22    1
    24     6    23    1
    25     6    24    1
    26     7    25    1
    27     8    26    1
    28     8    27    1
    29     9    28    1
    30     9    29    1
    31    10    30    1
    32    11    31    1
    33    12    32    1
    34    12    33    1
    35    13    34    1
    36    13    35    1
    37    14    36    1
    38    14    37    1
    39    15    38    1
    40    15    39    1
