@<TRIPOS>MOLECULE
*****
 21 20 0 0 0
SMALL
GASTEIGER

@<TRIPOS>ATOM
      1 C           0.9569    0.0274   -0.0860 C.3     1  UNL1       -0.0648
      2 C           2.4769    0.0274   -0.0860 C.3     1  UNL1       -0.0476
      3 C           2.9836    0.3811   -1.4747 C.3     1  UNL1        0.0237
      4 C           4.5036    0.3811   -1.4747 C.2     1  UNL1        0.2130
      5 O           5.1390    0.1094   -0.4082 O.2     1  UNL1       -0.2758
      6 N           5.2386    0.6954   -2.7084 N.am    1  UNL1       -0.3156
      7 C           6.7086    0.6954   -2.7084 C.3     1  UNL1        0.0088
      8 C           7.2153    1.0492   -4.0971 C.3     1  UNL1       -0.0495
      9 H           0.6003   -0.2217    0.8916 H       1  UNL1        0.0230
     10 H           0.6003   -0.6947   -0.7905 H       1  UNL1        0.0230
     11 H           0.6003    0.9985   -0.3591 H       1  UNL1        0.0230
     12 H           2.8336   -0.9438    0.1871 H       1  UNL1        0.0267
     13 H           2.8336    0.7495    0.6185 H       1  UNL1        0.0267
     14 H           2.6269    1.3523   -1.7478 H       1  UNL1        0.0358
     15 H           2.6269   -0.3410   -2.1792 H       1  UNL1        0.0358
     16 H           4.7463    0.9059   -3.5346 H       1  UNL1        0.1487
     17 H           7.0653   -0.2757   -2.4353 H       1  UNL1        0.0459
     18 H           7.0653    1.4175   -2.0039 H       1  UNL1        0.0459
     19 H           6.8586    0.3271   -4.8016 H       1  UNL1        0.0245
     20 H           8.2853    1.0492   -4.0971 H       1  UNL1        0.0245
     21 H           6.8586    2.0203   -4.3702 H       1  UNL1        0.0245
@<TRIPOS>BOND
     1     1     2    1
     2     2     3    1
     3     3     4    1
     4     4     5    2
     5     4     6   am
     6     6     7    1
     7     7     8    1
     8     1     9    1
     9     1    10    1
    10     1    11    1
    11     2    12    1
    12     2    13    1
    13     3    14    1
    14     3    15    1
    15     6    16    1
    16     7    17    1
    17     7    18    1
    18     8    19    1
    19     8    20    1
    20     8    21    1
