@<TRIPOS>MOLECULE
*****
 33 33 0 0 0
SMALL
GASTEIGER

@<TRIPOS>ATOM
      1 C           1.0965    0.0161   -0.0209 C.3     1  UNL1       -0.0653
      2 C           2.6165    0.0161   -0.0209 C.3     1  UNL1       -0.0559
      3 C           3.1231   -0.5648    1.2892 C.3     1  UNL1       -0.0529
      4 C           4.6431   -0.5648    1.2892 C.3     1  UNL1       -0.0448
      5 C           5.1498   -1.1457    2.5993 C.3     1  UNL1        0.0242
      6 C           6.6698   -1.1457    2.5993 C.2     1  UNL1        0.2156
      7 O           7.3052   -0.6995    1.5931 O.2     1  UNL1       -0.2756
      8 N           7.4048   -1.6617    3.7631 N.am    1  UNL1       -0.2991
      9 C           8.8748   -1.6617    3.7631 C.3     1  UNL1        0.0272
     10 C           9.3815   -2.2425    5.0731 C.3     1  UNL1        0.0118
     11 N          10.8515   -2.2425    5.0731 N.3     1  UNL1       -0.3130
     12 C          11.3414   -2.8043    6.3401 C.3     1  UNL1        0.0118
     13 C           6.6698   -2.1777    4.9269 C.3     1  UNL1        0.0272
     14 H           0.7398    0.4250   -0.9431 H       1  UNL1        0.0230
     15 H           0.7398    0.6103    0.7944 H       1  UNL1        0.0230
     16 H           0.7398   -0.9871    0.0861 H       1  UNL1        0.0230
     17 H           2.9731    1.0192   -0.1279 H       1  UNL1        0.0263
     18 H           2.9731   -0.5782   -0.8361 H       1  UNL1        0.0263
     19 H           2.7665   -1.5679    1.3962 H       1  UNL1        0.0265
     20 H           2.7665    0.0294    2.1044 H       1  UNL1        0.0265
     21 H           4.9998    0.4383    1.1822 H       1  UNL1        0.0270
     22 H           4.9998   -1.1590    0.4740 H       1  UNL1        0.0270
     23 H           4.7931   -2.1488    2.7063 H       1  UNL1        0.0358
     24 H           4.7931   -0.5514    3.4145 H       1  UNL1        0.0358
     25 H           9.2315   -0.6585    3.6561 H       1  UNL1        0.0477
     26 H           9.2315   -2.2559    2.9478 H       1  UNL1        0.0477
     27 H           9.0248   -3.2456    5.1801 H       1  UNL1        0.0439
     28 H           9.0248   -1.6483    5.8884 H       1  UNL1        0.0439
     29 H          11.1915   -1.2863    4.9711 H       1  UNL1        0.1220
     30 H          11.7827   -2.1809    7.0895 H       1  UNL1        0.0439
     31 H          11.9763   -3.6009    6.6675 H       1  UNL1        0.0439
     32 H           6.0925   -1.4681    5.4819 H       1  UNL1        0.0477
     33 H           5.9036   -2.9245    4.9149 H       1  UNL1        0.0477
@<TRIPOS>BOND
     1     1     2    1
     2     2     3    1
     3     3     4    1
     4     4     5    1
     5     5     6    1
     6     6     7    2
     7     6     8   am
     8     8     9    1
     9     9    10    1
    10    10    11    1
    11    11    12    1
    12    12    13    1
    13     8    13    1
    14     1    14    1
    15     1    15    1
    16     1    16    1
    17     2    17    1
    18     2    18    1
    19     3    19    1
    20     3    20    1
    21     4    21    1
    22     4    22    1
    23     5    23    1
    24     5    24    1
    25     9    25    1
    26     9    26    1
    27    10    27    1
    28    10    28    1
    29    11    29    1
    30    12    30    1
    31    12    31    1
    32    13    32    1
    33    13    33    1
