@<TRIPOS>MOLECULE
*****
 37 38 0 0 0
SMALL
GASTEIGER

@<TRIPOS>ATOM
      1 C           1.0817    0.0124    0.0563 C.3     1  UNL1       -0.0125
      2 N           2.5517    0.0124    0.0563 N.3     1  UNL1       -0.3021
      3 C           3.0417    0.1091   -1.3262 C.3     1  UNL1        0.0018
      4 C           2.5350   -1.0790   -2.1276 C.3     1  UNL1       -0.0254
      5 C           3.0417   -0.9791   -3.5572 C.3     1  UNL1       -0.0331
      6 C           2.5350   -2.1671   -4.3585 C.3     1  UNL1        0.0147
      7 N           3.0250   -2.0705   -5.7411 N.am    1  UNL1       -0.3040
      8 C           3.8702   -0.9371   -6.1438 C.2     1  UNL1        0.2025
      9 O           4.1772   -0.0408   -5.2967 O.2     1  UNL1       -0.2793
     10 C           2.6699   -3.1071   -6.7209 C.3     1  UNL1        0.0147
     11 C           1.0150   -1.0790   -2.1276 C.3     1  UNL1       -0.0331
     12 C           3.0417    1.1614    0.8313 C.3     1  UNL1        0.0101
     13 C           4.5617    1.1614    0.8313 C.3     1  UNL1       -0.0373
     14 C           5.0684    2.3495    1.6327 C.3     1  UNL1       -0.0502
     15 C           2.5350    1.0614    2.2609 C.3     1  UNL1       -0.0373
     16 H           0.7250   -0.8240   -0.5078 H       1  UNL1        0.0391
     17 H           0.7250    0.9191   -0.3859 H       1  UNL1        0.0391
     18 H           0.7250   -0.0580    1.0627 H       1  UNL1        0.0391
     19 H           4.1117    0.1091   -1.3262 H       1  UNL1        0.0429
     20 H           2.6850    1.0158   -1.7685 H       1  UNL1        0.0429
     21 H           2.8917   -1.9857   -1.6853 H       1  UNL1        0.0314
     22 H           4.1117   -0.9791   -3.5572 H       1  UNL1        0.0283
     23 H           2.6850   -0.0724   -3.9994 H       1  UNL1        0.0283
     24 H           1.4650   -2.1671   -4.3585 H       1  UNL1        0.0464
     25 H           2.8917   -3.0738   -3.9163 H       1  UNL1        0.0464
     26 H           4.2142   -0.8692   -7.1144 H       1  UNL1        0.1253
     27 H           3.1860   -4.0418   -6.7920 H       1  UNL1        0.0464
     28 H           2.3845   -3.2567   -7.7412 H       1  UNL1        0.0464
     29 H           0.5145   -1.7320   -1.4435 H       1  UNL1        0.0283
     30 H           0.3323   -0.2762   -1.9422 H       1  UNL1        0.0283
     31 H           2.6850    2.0681    0.3891 H       1  UNL1        0.0462
     32 H           4.9184    1.2317   -0.1750 H       1  UNL1        0.0280
     33 H           4.9184    0.2547    1.2736 H       1  UNL1        0.0280
     34 H           5.0827    3.3267    1.1971 H       1  UNL1        0.0266
     35 H           5.9623    2.5829    2.1723 H       1  UNL1        0.0266
     36 H           1.6970    1.6464    2.5778 H       1  UNL1        0.0280
     37 H           2.2192    0.2691    2.9069 H       1  UNL1        0.0280
@<TRIPOS>BOND
     1     1     2    1
     2     2     3    1
     3     3     4    1
     4     4     5    1
     5     5     6    1
     6     6     7    1
     7     7     8   am
     8     8     9    2
     9     7    10    1
    10    10    11    1
    11     4    11    1
    12     2    12    1
    13    12    13    1
    14    13    14    1
    15    14    15    1
    16    12    15    1
    17     1    16    1
    18     1    17    1
    19     1    18    1
    20     3    19    1
    21     3    20    1
    22     4    21    1
    23     5    22    1
    24     5    23    1
    25     6    24    1
    26     6    25    1
    27     8    26    1
    28    10    27    1
    29    10    28    1
    30    11    29    1
    31    11    30    1
    32    12    31    1
    33    13    32    1
    34    13    33    1
    35    14    34    1
    36    14    35    1
    37    15    36    1
    38    15    37    1
