@<TRIPOS>MOLECULE
*****
 40 39 0 0 0
SMALL
GASTEIGER

@<TRIPOS>ATOM
      1 C           0.9217    0.0606    0.0141 C.3     1  UNL1       -0.0416
      2 C           2.4417    0.0606    0.0141 C.3     1  UNL1        0.0449
      3 O           2.9151   -0.5660    1.1972 O.3     1  UNL1       -0.3778
      4 C           4.3351   -0.5660    1.1972 C.3     1  UNL1        0.0710
      5 C           4.8417   -1.2367    2.4636 C.3     1  UNL1        0.0711
      6 O           6.2617   -1.2367    2.4636 O.3     1  UNL1       -0.3752
      7 C           6.7350   -1.8633    3.6467 C.3     1  UNL1        0.0711
      8 C           8.2550   -1.8633    3.6467 C.3     1  UNL1        0.0711
      9 O           8.7284   -2.4899    4.8298 O.3     1  UNL1       -0.3752
     10 C          10.1484   -2.4899    4.8298 C.3     1  UNL1        0.0711
     11 C          10.6550   -3.1606    6.0963 C.3     1  UNL1        0.0710
     12 O          12.0750   -3.1606    6.0963 O.3     1  UNL1       -0.3770
     13 C          12.5484   -3.7872    7.2794 C.3     1  UNL1        0.0560
     14 C          14.0684   -3.7872    7.2794 C.3     1  UNL1        0.0471
     15 C          14.5750   -4.4580    8.5458 C.2     1  UNL1        0.2127
     16 N          13.6198   -4.9809    9.5332 N.am    1  UNL1       -0.3293
     17 O          15.8245   -4.5667    8.7510 O.2     1  UNL1       -0.2760
     18 H           0.5651    0.5328   -0.8774 H       1  UNL1        0.0252
     19 H           0.5651    0.5966    0.8688 H       1  UNL1        0.0252
     20 H           0.5651   -0.9475    0.0510 H       1  UNL1        0.0252
     21 H           2.7984    1.0687   -0.0227 H       1  UNL1        0.0557
     22 H           2.7984   -0.4754   -0.8405 H       1  UNL1        0.0557
     23 H           4.6917    0.4421    1.1604 H       1  UNL1        0.0583
     24 H           4.6917   -1.1020    0.3426 H       1  UNL1        0.0583
     25 H           4.4850   -2.2448    2.5005 H       1  UNL1        0.0583
     26 H           4.4850   -0.7007    3.3183 H       1  UNL1        0.0583
     27 H           6.3784   -2.8714    3.6836 H       1  UNL1        0.0583
     28 H           6.3784   -1.3273    4.5014 H       1  UNL1        0.0583
     29 H           8.6117   -0.8552    3.6099 H       1  UNL1        0.0583
     30 H           8.6117   -2.3993    2.7921 H       1  UNL1        0.0583
     31 H          10.5050   -1.4818    4.7930 H       1  UNL1        0.0583
     32 H          10.5050   -3.0259    3.9752 H       1  UNL1        0.0583
     33 H          10.2984   -4.1688    6.1331 H       1  UNL1        0.0583
     34 H          10.2984   -2.6247    6.9509 H       1  UNL1        0.0583
     35 H          12.1917   -4.7954    7.3162 H       1  UNL1        0.0564
     36 H          12.1917   -3.2513    8.1340 H       1  UNL1        0.0564
     37 H          14.4250   -2.7791    7.2425 H       1  UNL1        0.0381
     38 H          14.4250   -4.3232    6.4247 H       1  UNL1        0.0381
     39 H          12.6518   -4.8967    9.3742 H       1  UNL1        0.1449
     40 H          13.9479   -5.4153   10.3534 H       1  UNL1        0.1449
@<TRIPOS>BOND
     1     1     2    1
     2     2     3    1
     3     3     4    1
     4     4     5    1
     5     5     6    1
     6     6     7    1
     7     7     8    1
     8     8     9    1
     9     9    10    1
    10    10    11    1
    11    11    12    1
    12    12    13    1
    13    13    14    1
    14    14    15    1
    15    15    16   am
    16    15    17    2
    17     1    18    1
    18     1    19    1
    19     1    20    1
    20     2    21    1
    21     2    22    1
    22     4    23    1
    23     4    24    1
    24     5    25    1
    25     5    26    1
    26     7    27    1
    27     7    28    1
    28     8    29    1
    29     8    30    1
    30    10    31    1
    31    10    32    1
    32    11    33    1
    33    11    34    1
    34    13    35    1
    35    13    36    1
    36    14    37    1
    37    14    38    1
    38    16    39    1
    39    16    40    1
