@<TRIPOS>MOLECULE
*****
 37 38 0 0 0
SMALL
GASTEIGER

@<TRIPOS>ATOM
      1 C           1.0961    0.0169   -0.0217 C.3     1  UNL1       -0.0641
      2 C           2.6161    0.0169   -0.0217 C.3     1  UNL1       -0.0431
      3 C           3.1228    0.7301    1.2213 C.3     1  UNL1       -0.0012
      4 N           4.5928    0.7301    1.2213 N.3     1  UNL1       -0.2994
      5 C           5.0828    1.4199    2.4233 C.3     1  UNL1        0.0147
      6 C           6.6028    1.4199    2.4233 C.3     1  UNL1        0.0263
      7 N           7.0928    2.1097    3.6254 N.pl3   1  UNL1       -0.3116
      8 C           6.1375    2.6659    4.5945 C.ar    1  UNL1        0.1396
      9 C           4.7216    2.5349    4.3662 C.ar    1  UNL1        0.0683
     10 N           3.8165    3.0618    5.2844 N.ar    1  UNL1       -0.2454
     11 C           2.4471    2.9351    5.0637 C.ar    1  UNL1        0.1432
     12 C           1.9405    2.2218    3.8207 C.2     1  UNL1        0.2614
     13 N           0.4952    2.0881    3.5877 N.am    1  UNL1       -0.3240
     14 O           2.7663    1.7411    2.9829 O.2     1  UNL1       -0.2687
     15 C           1.5112    3.4799    6.0131 C.ar    1  UNL1        0.0602
     16 N           6.6018    3.3194    5.7334 N.ar    1  UNL1       -0.2365
     17 C           8.5380    2.2434    3.8584 C.3     1  UNL1        0.0263
     18 C           5.0828    1.4263    0.0228 C.3     1  UNL1        0.0147
     19 H           0.7395   -0.4852   -0.8967 H       1  UNL1        0.0230
     20 H           0.7395    1.0257   -0.0191 H       1  UNL1        0.0230
     21 H           0.7395   -0.4898    0.8506 H       1  UNL1        0.0230
     22 H           2.9728    0.5236   -0.8940 H       1  UNL1        0.0275
     23 H           2.9728   -0.9919   -0.0244 H       1  UNL1        0.0275
     24 H           2.7661    0.2234    2.0936 H       1  UNL1        0.0426
     25 H           2.7661    1.7389    1.2239 H       1  UNL1        0.0426
     26 H           4.7261    0.9132    3.2956 H       1  UNL1        0.0442
     27 H           4.7261    2.4287    2.4260 H       1  UNL1        0.0442
     28 H           6.9595    1.9266    1.5510 H       1  UNL1        0.0477
     29 H           6.9595    0.4111    2.4207 H       1  UNL1        0.0477
     30 H           4.3776    2.0506    3.5223 H       1  UNL1        0.0865
     31 H          -0.1446    2.4606    4.2368 H       1  UNL1        0.1453
     32 H           0.1670    1.6262    2.7827 H       1  UNL1        0.1453
     33 H           0.5880    3.7095    6.4132 H       1  UNL1        0.0853
     34 H           9.1350    1.4626    4.2813 H       1  UNL1        0.0477
     35 H           9.2912    2.9208    4.2030 H       1  UNL1        0.0477
     36 H           5.3930    0.8291   -0.8091 H       1  UNL1        0.0442
     37 H           4.5822    2.1357   -0.6025 H       1  UNL1        0.0442
@<TRIPOS>BOND
     1     1     2    1
     2     2     3    1
     3     3     4    1
     4     4     5    1
     5     5     6    1
     6     6     7    1
     7     7     8    1
     8     8     9   ar
     9     9    10   ar
    10    10    11   ar
    11    11    12    1
    12    12    13   am
    13    12    14    2
    14    11    15   ar
    15    15    16   ar
    16     8    16   ar
    17     7    17    1
    18    17    18    1
    19     4    18    1
    20     1    19    1
    21     1    20    1
    22     1    21    1
    23     2    22    1
    24     2    23    1
    25     3    24    1
    26     3    25    1
    27     5    26    1
    28     5    27    1
    29     6    28    1
    30     6    29    1
    31     9    30    1
    32    13    31    1
    33    13    32    1
    34    15    33    1
    35    17    34    1
    36    17    35    1
    37    18    36    1
    38    18    37    1
