@<TRIPOS>MOLECULE
*****
 32 31 0 0 0
SMALL
GASTEIGER

@<TRIPOS>ATOM
      1 C           0.9846   -0.0498    0.0854 C.3     1  UNL1        0.0365
      2 O           2.4046   -0.0498    0.0854 O.3     1  UNL1       -0.3807
      3 C           2.8779    0.0101    1.4228 C.3     1  UNL1        0.0706
      4 C           4.3979    0.0101    1.4228 C.3     1  UNL1        0.0711
      5 O           4.8713    0.0700    2.7603 O.3     1  UNL1       -0.3752
      6 C           6.2913    0.0700    2.7603 C.3     1  UNL1        0.0711
      7 C           6.7979    0.1341    4.1919 C.3     1  UNL1        0.0711
      8 O           8.2179    0.1341    4.1919 O.3     1  UNL1       -0.3752
      9 C           8.6913    0.1940    5.5294 C.3     1  UNL1        0.0711
     10 C          10.2113    0.1940    5.5294 C.3     1  UNL1        0.0715
     11 O          10.6846    0.2539    6.8668 O.3     1  UNL1       -0.3703
     12 C          12.1046    0.2539    6.8668 C.3     1  UNL1        0.1028
     13 C          12.6112    0.3180    8.2984 C.2     1  UNL1        0.1458
     14 O          13.8608    0.3284    8.5304 O.2     1  UNL1       -0.2986
     15 H           0.6280   -0.0949   -0.9224 H       1  UNL1        0.0524
     16 H           0.6279    0.8456    0.5502 H       1  UNL1        0.0524
     17 H           0.6279   -0.9000    0.6283 H       1  UNL1        0.0524
     18 H           2.5213   -0.8401    1.9658 H       1  UNL1        0.0582
     19 H           2.5213    0.9055    1.8876 H       1  UNL1        0.0582
     20 H           4.7546    0.8603    0.8798 H       1  UNL1        0.0583
     21 H           4.7546   -0.8852    0.9580 H       1  UNL1        0.0583
     22 H           6.6479    0.9202    2.2173 H       1  UNL1        0.0583
     23 H           6.6479   -0.8253    2.2954 H       1  UNL1        0.0583
     24 H           6.4413   -0.7161    4.7349 H       1  UNL1        0.0583
     25 H           6.4413    1.0295    4.6567 H       1  UNL1        0.0583
     26 H           8.3346   -0.6562    6.0723 H       1  UNL1        0.0583
     27 H           8.3346    1.0893    5.9942 H       1  UNL1        0.0583
     28 H          10.5679    1.0442    4.9864 H       1  UNL1        0.0583
     29 H          10.5679   -0.7013    5.0645 H       1  UNL1        0.0583
     30 H          12.4613    1.1041    6.3238 H       1  UNL1        0.0636
     31 H          12.4613   -0.6414    6.4020 H       1  UNL1        0.0636
     32 H          11.9406    0.3531    9.0821 H       1  UNL1        0.1051
@<TRIPOS>BOND
     1     1     2    1
     2     2     3    1
     3     3     4    1
     4     4     5    1
     5     5     6    1
     6     6     7    1
     7     7     8    1
     8     8     9    1
     9     9    10    1
    10    10    11    1
    11    11    12    1
    12    12    13    1
    13    13    14    2
    14     1    15    1
    15     1    16    1
    16     1    17    1
    17     3    18    1
    18     3    19    1
    19     4    20    1
    20     4    21    1
    21     6    22    1
    22     6    23    1
    23     7    24    1
    24     7    25    1
    25     9    26    1
    26     9    27    1
    27    10    28    1
    28    10    29    1
    29    12    30    1
    30    12    31    1
    31    13    32    1
