@<TRIPOS>MOLECULE
*****
 25 25 0 0 0
SMALL
GASTEIGER

@<TRIPOS>ATOM
      1 C           0.9419   -0.0235   -0.0779 C.3     1  UNL1       -0.0397
      2 C           2.4619   -0.0235   -0.0779 C.ar    1  UNL1       -0.0504
      3 C           3.1820   -0.4796   -1.2388 C.ar    1  UNL1       -0.0586
      4 C           4.6222   -0.4796   -1.2388 C.ar    1  UNL1       -0.0583
      5 C           5.3423   -0.9356   -2.3997 C.ar    1  UNL1       -0.0473
      6 C           4.5823   -1.4169   -3.6249 C.3     1  UNL1       -0.0256
      7 C           3.0879   -1.3153   -3.3664 C.3     1  UNL1       -0.0257
      8 C           2.3279   -1.7966   -4.5916 C.3     1  UNL1        0.0445
      9 O           0.9318   -1.7018   -4.3501 O.3     1  UNL1       -0.3950
     10 C           6.7825   -0.9356   -2.3997 C.ar    1  UNL1       -0.0583
     11 C           3.1820    0.4325    1.0830 C.ar    1  UNL1       -0.0586
     12 H           0.5853   -0.3924   -1.0169 H       1  UNL1        0.0278
     13 H           0.5853    0.9740    0.0721 H       1  UNL1        0.0278
     14 H           0.5852   -0.6523    0.7110 H       1  UNL1        0.0278
     15 H           2.6660   -0.8063   -2.0707 H       1  UNL1        0.0620
     16 H           5.1382   -0.1528   -0.4070 H       1  UNL1        0.0620
     17 H           4.8408   -2.4352   -3.8277 H       1  UNL1        0.0314
     18 H           4.8408   -0.8089   -4.4666 H       1  UNL1        0.0314
     19 H           2.8294   -0.2970   -3.1636 H       1  UNL1        0.0290
     20 H           2.8294   -1.9233   -2.5247 H       1  UNL1        0.0290
     21 H           2.5864   -2.8149   -4.7944 H       1  UNL1        0.0557
     22 H           2.5864   -1.1886   -5.4333 H       1  UNL1        0.0557
     23 H           0.6975   -2.2529   -3.5871 H       1  UNL1        0.2094
     24 H           7.7321   -1.0833   -2.7758 H       1  UNL1        0.0620
     25 H           3.0572    0.8070    2.0365 H       1  UNL1        0.0620
@<TRIPOS>BOND
     1     1     2    1
     2     2     3   ar
     3     3     4   ar
     4     4     5   ar
     5     5     6    1
     6     6     7    1
     7     7     8    1
     8     8     9    1
     9     5    10   ar
    10    10    11   ar
    11     2    11   ar
    12     1    12    1
    13     1    13    1
    14     1    14    1
    15     3    15    1
    16     4    16    1
    17     6    17    1
    18     6    18    1
    19     7    19    1
    20     7    20    1
    21     8    21    1
    22     8    22    1
    23     9    23    1
    24    10    24    1
    25    11    25    1
