@<TRIPOS>MOLECULE
*****
 26 27 0 0 0
SMALL
GASTEIGER

@<TRIPOS>ATOM
      1 O           1.0615   -0.0386   -0.0688 O.2     1  UNL1       -0.2957
      2 C           2.3324   -0.0386   -0.0688 C.2     1  UNL1        0.1502
      3 C           3.0924    0.2318    1.2195 C.ar    1  UNL1        0.0143
      4 C           4.5326    0.2318    1.2195 C.ar    1  UNL1       -0.0495
      5 C           5.2527    0.4880    2.4402 C.ar    1  UNL1       -0.0339
      6 C           6.6929    0.4880    2.4402 C.ar    1  UNL1        0.0862
      7 N           7.4279    0.2265    1.1943 N.2     1  UNL1       -0.1493
      8 N           6.7924    0.0004    0.1171 N.2     1  UNL1       -0.1493
      9 C           7.5274   -0.2611   -1.1288 C.ar    1  UNL1        0.0862
     10 C           6.8073   -0.5172   -2.3495 C.ar    1  UNL1       -0.0345
     11 C           7.5274   -0.7734   -3.5701 C.ar    1  UNL1       -0.0597
     12 C           6.8073   -1.0296   -4.7908 C.ar    1  UNL1       -0.0616
     13 C           7.5274   -1.2857   -6.0115 C.ar    1  UNL1       -0.0597
     14 C           8.9676   -0.2611   -1.1288 C.ar    1  UNL1       -0.0345
     15 C           7.4130    0.7441    3.6608 C.ar    1  UNL1       -0.0339
     16 C           2.3723    0.4880    2.4402 C.ar    1  UNL1       -0.0495
     17 H           2.8484   -0.2222   -0.9435 H       1  UNL1        0.1081
     18 H           5.0486    0.0482    0.3448 H       1  UNL1        0.0625
     19 H           4.7367    0.6715    3.3149 H       1  UNL1        0.0639
     20 H           5.7753   -0.5172   -2.3495 H       1  UNL1        0.0639
     21 H           8.5594   -0.7734   -3.5701 H       1  UNL1        0.0618
     22 H           5.7753   -1.0296   -4.7908 H       1  UNL1        0.0618
     23 H           7.6523   -1.4962   -7.0140 H       1  UNL1        0.0618
     24 H           9.7924   -0.1336   -0.5217 H       1  UNL1        0.0639
     25 H           8.2377    0.8715    4.2679 H       1  UNL1        0.0639
     26 H           1.4227    0.5710    2.8356 H       1  UNL1        0.0625
@<TRIPOS>BOND
     1     1     2    2
     2     2     3    1
     3     3     4   ar
     4     4     5   ar
     5     5     6   ar
     6     6     7    1
     7     7     8    2
     8     8     9    1
     9     9    10   ar
    10    10    11   ar
    11    11    12   ar
    12    12    13   ar
    13    13    14   ar
    14     9    14   ar
    15     6    15   ar
    16    15    16   ar
    17     3    16   ar
    18     2    17    1
    19     4    18    1
    20     5    19    1
    21    10    20    1
    22    11    21    1
    23    12    22    1
    24    13    23    1
    25    14    24    1
    26    15    25    1
    27    16    26    1
