@<TRIPOS>MOLECULE
*****
 29 29 0 0 0
SMALL
GASTEIGER

@<TRIPOS>ATOM
      1 O           1.0361   -0.0583    0.0728 O.2     1  UNL1       -0.3010
      2 C           2.3070   -0.0583    0.0728 C.2     1  UNL1        0.1203
      3 C           3.0670   -0.7094   -1.0713 C.3     1  UNL1        0.0032
      4 C           4.5614   -0.5720   -0.8299 C.3     1  UNL1       -0.0384
      5 C           5.3214   -1.2231   -1.9740 C.3     1  UNL1        0.0245
      6 C           6.8158   -1.0857   -1.7326 C.2     1  UNL1        0.2156
      7 O           7.2394   -0.4931   -0.6912 O.2     1  UNL1       -0.2756
      8 N           7.7710   -1.6383   -2.7037 N.am    1  UNL1       -0.2991
      9 C           9.2163   -1.5055   -2.4702 C.3     1  UNL1        0.0272
     10 C           9.9763   -2.1565   -3.6143 C.3     1  UNL1        0.0118
     11 N          11.4215   -2.0237   -3.3808 N.3     1  UNL1       -0.3130
     12 C          12.1565   -2.6533   -4.4873 C.3     1  UNL1        0.0118
     13 C           7.2811   -2.3238   -3.9082 C.3     1  UNL1        0.0272
     14 H           2.8230    0.3837    0.8495 H       1  UNL1        0.1026
     15 H           2.8085   -0.2276   -1.9911 H       1  UNL1        0.0339
     16 H           2.8085   -1.7462   -1.1269 H       1  UNL1        0.0339
     17 H           4.8199   -1.0538    0.0898 H       1  UNL1        0.0274
     18 H           4.8199    0.4648   -0.7743 H       1  UNL1        0.0274
     19 H           5.0629   -0.7413   -2.8937 H       1  UNL1        0.0358
     20 H           5.0629   -2.2599   -2.0295 H       1  UNL1        0.0358
     21 H           9.4748   -1.9873   -1.5505 H       1  UNL1        0.0477
     22 H           9.4748   -0.4686   -2.4147 H       1  UNL1        0.0477
     23 H           9.7178   -1.6747   -4.5340 H       1  UNL1        0.0439
     24 H           9.7178   -3.1933   -3.6698 H       1  UNL1        0.0439
     25 H          11.6680   -2.4829   -2.5041 H       1  UNL1        0.1220
     26 H          12.6694   -3.5830   -4.3546 H       1  UNL1        0.0439
     27 H          12.8944   -2.3808   -5.2126 H       1  UNL1        0.0439
     28 H           6.7536   -3.2422   -3.7556 H       1  UNL1        0.0477
     29 H           6.5811   -1.9373   -4.6193 H       1  UNL1        0.0477
@<TRIPOS>BOND
     1     1     2    2
     2     2     3    1
     3     3     4    1
     4     4     5    1
     5     5     6    1
     6     6     7    2
     7     6     8   am
     8     8     9    1
     9     9    10    1
    10    10    11    1
    11    11    12    1
    12    12    13    1
    13     8    13    1
    14     2    14    1
    15     3    15    1
    16     3    16    1
    17     4    17    1
    18     4    18    1
    19     5    19    1
    20     5    20    1
    21     9    21    1
    22     9    22    1
    23    10    23    1
    24    10    24    1
    25    11    25    1
    26    12    26    1
    27    12    27    1
    28    13    28    1
    29    13    29    1
