@<TRIPOS>MOLECULE
*****
 54 53 0 0 0
SMALL
GASTEIGER

@<TRIPOS>ATOM
      1 C           0.9824    0.0969    0.0173 C.3     1  UNL1       -0.0570
      2 C           2.5024    0.0969    0.0173 C.3     1  UNL1        0.0211
      3 C           3.0091    0.0109   -1.4132 C.2     1  UNL1        0.2128
      4 O           2.1832   -0.0470   -2.3774 O.2     1  UNL1       -0.2758
      5 N           4.4543   -0.0052   -1.6813 N.am    1  UNL1       -0.3131
      6 C           4.9443   -0.0883   -3.0648 C.3     1  UNL1        0.0350
      7 C           6.4643   -0.0883   -3.0648 C.3     1  UNL1        0.0632
      8 O           6.9377   -0.1686   -4.4011 O.3     1  UNL1       -0.3760
      9 C           8.3577   -0.1686   -4.4011 C.3     1  UNL1        0.0711
     10 C           8.8643   -0.2546   -5.8316 C.3     1  UNL1        0.0711
     11 O          10.2843   -0.2546   -5.8316 O.3     1  UNL1       -0.3752
     12 C          10.7576   -0.3349   -7.1680 C.3     1  UNL1        0.0711
     13 C          12.2776   -0.3349   -7.1680 C.3     1  UNL1        0.0711
     14 O          12.7510   -0.4153   -8.5044 O.3     1  UNL1       -0.3752
     15 C          14.1710   -0.4153   -8.5044 C.3     1  UNL1        0.0711
     16 C          14.6776   -0.5012   -9.9349 C.3     1  UNL1        0.0711
     17 O          16.0976   -0.5012   -9.9349 O.3     1  UNL1       -0.3752
     18 C          16.5710   -0.5816  -11.2713 C.3     1  UNL1        0.0711
     19 C          18.0910   -0.5816  -11.2713 C.3     1  UNL1        0.0711
     20 O          18.5643   -0.6619  -12.6076 O.3     1  UNL1       -0.3752
     21 C          19.9843   -0.6619  -12.6076 C.3     1  UNL1        0.0708
     22 C          20.4909   -0.7479  -14.0381 C.3     1  UNL1        0.0676
     23 O          21.9109   -0.7479  -14.0381 O.3     1  UNL1       -0.3927
     24 H           0.6258    0.1574    1.0243 H       1  UNL1        0.0234
     25 H           0.6258   -0.8054   -0.4338 H       1  UNL1        0.0234
     26 H           0.6258    0.9387   -0.5386 H       1  UNL1        0.0234
     27 H           2.8591   -0.7449    0.5732 H       1  UNL1        0.0356
     28 H           2.8591    0.9992    0.4684 H       1  UNL1        0.0356
     29 H           5.0941    0.0397   -0.9344 H       1  UNL1        0.1488
     30 H           4.5877    0.7535   -3.6207 H       1  UNL1        0.0484
     31 H           4.5877   -0.9907   -3.5159 H       1  UNL1        0.0484
     32 H           6.8210   -0.9301   -2.5089 H       1  UNL1        0.0575
     33 H           6.8210    0.8140   -2.6137 H       1  UNL1        0.0575
     34 H           8.7143   -1.0105   -3.8452 H       1  UNL1        0.0583
     35 H           8.7143    0.7337   -3.9501 H       1  UNL1        0.0583
     36 H           8.5076    0.5872   -6.3875 H       1  UNL1        0.0583
     37 H           8.5076   -1.1570   -6.2827 H       1  UNL1        0.0583
     38 H          10.4010    0.5069   -7.7239 H       1  UNL1        0.0583
     39 H          10.4010   -1.2373   -7.6191 H       1  UNL1        0.0583
     40 H          12.6343   -1.1768   -6.6121 H       1  UNL1        0.0583
     41 H          12.6343    0.5674   -6.7169 H       1  UNL1        0.0583
     42 H          14.5276   -1.2571   -7.9485 H       1  UNL1        0.0583
     43 H          14.5276    0.4871   -8.0533 H       1  UNL1        0.0583
     44 H          14.3210    0.3406  -10.4908 H       1  UNL1        0.0583
     45 H          14.3210   -1.4036  -10.3860 H       1  UNL1        0.0583
     46 H          16.2143    0.2603  -11.8272 H       1  UNL1        0.0583
     47 H          16.2143   -1.4839  -11.7223 H       1  UNL1        0.0583
     48 H          18.4476   -1.4234  -10.7154 H       1  UNL1        0.0583
     49 H          18.4476    0.3208  -10.8202 H       1  UNL1        0.0583
     50 H          20.3410   -1.5037  -12.0517 H       1  UNL1        0.0583
     51 H          20.3410    0.2405  -12.1566 H       1  UNL1        0.0583
     52 H          20.1343    0.0940  -14.5940 H       1  UNL1        0.0580
     53 H          20.1343   -1.6502  -14.4892 H       1  UNL1        0.0580
     54 H          22.2343    0.0702  -13.6292 H       1  UNL1        0.2095
@<TRIPOS>BOND
     1     1     2    1
     2     2     3    1
     3     3     4    2
     4     3     5   am
     5     5     6    1
     6     6     7    1
     7     7     8    1
     8     8     9    1
     9     9    10    1
    10    10    11    1
    11    11    12    1
    12    12    13    1
    13    13    14    1
    14    14    15    1
    15    15    16    1
    16    16    17    1
    17    17    18    1
    18    18    19    1
    19    19    20    1
    20    20    21    1
    21    21    22    1
    22    22    23    1
    23     1    24    1
    24     1    25    1
    25     1    26    1
    26     2    27    1
    27     2    28    1
    28     5    29    1
    29     6    30    1
    30     6    31    1
    31     7    32    1
    32     7    33    1
    33     9    34    1
    34     9    35    1
    35    10    36    1
    36    10    37    1
    37    12    38    1
    38    12    39    1
    39    13    40    1
    40    13    41    1
    41    15    42    1
    42    15    43    1
    43    16    44    1
    44    16    45    1
    45    18    46    1
    46    18    47    1
    47    19    48    1
    48    19    49    1
    49    21    50    1
    50    21    51    1
    51    22    52    1
    52    22    53    1
    53    23    54    1
