@<TRIPOS>MOLECULE
*****
 42 41 0 0 0
SMALL
GASTEIGER

@<TRIPOS>ATOM
      1 C           0.9749    0.0732   -0.0634 C.3     1  UNL1        0.0486
      2 N           2.4449    0.0732   -0.0634 N.pl3   1  UNL1       -0.2341
      3 C           3.1799   -1.1752   -0.3129 C.3     1  UNL1        0.0547
      4 C           2.1922   -2.3081   -0.5394 C.3     1  UNL1        0.0650
      5 O           2.9022   -3.5140   -0.7805 O.3     1  UNL1       -0.3759
      6 C           1.9794   -4.5724   -0.9920 C.3     1  UNL1        0.0711
      7 C           2.7394   -5.8632   -1.2501 C.3     1  UNL1        0.0711
      8 O           1.8167   -6.9215   -1.4616 O.3     1  UNL1       -0.3752
      9 C           2.5267   -8.1274   -1.7027 C.3     1  UNL1        0.0711
     10 C           1.5389   -9.2604   -1.9292 C.3     1  UNL1        0.0711
     11 O           2.2489  -10.4662   -2.1702 O.3     1  UNL1       -0.3752
     12 C           1.3261  -11.5246   -2.3818 C.3     1  UNL1        0.0711
     13 C           2.0861  -12.8154   -2.6398 C.3     1  UNL1        0.0710
     14 O           1.1634  -13.8738   -2.8514 O.3     1  UNL1       -0.3778
     15 C           1.8734  -15.0797   -3.0925 C.3     1  UNL1        0.0449
     16 C           0.8856  -16.2126   -3.3189 C.3     1  UNL1       -0.0416
     17 N           3.1549    1.2791    0.1777 N.2     1  UNL1       -0.0868
     18 N           4.4258    1.2791    0.1777 N.2     1  UNL1       -0.1875
     19 H           0.6183   -0.9161   -0.2611 H       1  UNL1        0.0496
     20 H           0.6183    0.7390   -0.8212 H       1  UNL1        0.0496
     21 H           3.7951   -1.4020    0.5327 H       1  UNL1        0.0503
     22 H           3.7951   -1.0595   -1.1807 H       1  UNL1        0.0503
     23 H           1.5770   -2.0813   -1.3850 H       1  UNL1        0.0576
     24 H           1.5770   -2.4238    0.3284 H       1  UNL1        0.0576
     25 H           1.3643   -4.3455   -1.8376 H       1  UNL1        0.0583
     26 H           1.3643   -4.6880   -0.1242 H       1  UNL1        0.0583
     27 H           3.3546   -6.0900   -0.4045 H       1  UNL1        0.0583
     28 H           3.3546   -5.7475   -2.1179 H       1  UNL1        0.0583
     29 H           3.1418   -8.3543   -0.8571 H       1  UNL1        0.0583
     30 H           3.1418   -8.0118   -2.5705 H       1  UNL1        0.0583
     31 H           0.9238   -9.0335   -2.7748 H       1  UNL1        0.0583
     32 H           0.9238   -9.3760   -1.0613 H       1  UNL1        0.0583
     33 H           0.7110  -11.2978   -3.2274 H       1  UNL1        0.0583
     34 H           0.7110  -11.6403   -1.5140 H       1  UNL1        0.0583
     35 H           2.7013  -13.0423   -1.7942 H       1  UNL1        0.0583
     36 H           2.7013  -12.6998   -3.5076 H       1  UNL1        0.0583
     37 H           2.4885  -15.3065   -2.2469 H       1  UNL1        0.0557
     38 H           2.4885  -14.9640   -3.9603 H       1  UNL1        0.0557
     39 H           0.2705  -16.3283   -2.4511 H       1  UNL1        0.0252
     40 H           1.4206  -17.1213   -3.5006 H       1  UNL1        0.0252
     41 H           0.2705  -15.9858   -4.1645 H       1  UNL1        0.0252
     42 H           4.9181    2.1151    0.3448 H       1  UNL1        0.2134
@<TRIPOS>BOND
     1     1     2    1
     2     2     3    1
     3     3     4    1
     4     4     5    1
     5     5     6    1
     6     6     7    1
     7     7     8    1
     8     8     9    1
     9     9    10    1
    10    10    11    1
    11    11    12    1
    12    12    13    1
    13    13    14    1
    14    14    15    1
    15    15    16    1
    16     2    17    1
    17    17    18    2
    18     1    19    1
    19     1    20    1
    20     3    21    1
    21     3    22    1
    22     4    23    1
    23     4    24    1
    24     6    25    1
    25     6    26    1
    26     7    27    1
    27     7    28    1
    28     9    29    1
    29     9    30    1
    30    10    31    1
    31    10    32    1
    32    12    33    1
    33    12    34    1
    34    13    35    1
    35    13    36    1
    36    15    37    1
    37    15    38    1
    38    16    39    1
    39    16    40    1
    40    16    41    1
    41    18    42    1
