@<TRIPOS>MOLECULE
*****
 34 33 0 0 0
SMALL
GASTEIGER

@<TRIPOS>ATOM
      1 C           1.0384   -0.0916   -0.0120 C.3     1  UNL1       -0.0653
      2 C           2.5584   -0.0916   -0.0120 C.3     1  UNL1       -0.0559
      3 C           3.0650    0.3031   -1.3896 C.3     1  UNL1       -0.0533
      4 C           4.5850    0.3031   -1.3896 C.3     1  UNL1       -0.0531
      5 C           5.0917    0.6978   -2.7673 C.3     1  UNL1       -0.0530
      6 C           6.6117    0.6978   -2.7673 C.3     1  UNL1       -0.0519
      7 C           7.1183    1.0926   -4.1449 C.3     1  UNL1       -0.0402
      8 C           8.6383    1.0926   -4.1449 C.3     1  UNL1       -0.0017
      9 N           9.1283    1.4743   -5.4773 N.3     1  UNL1       -0.3083
     10 C           8.6383    2.8190   -5.8128 C.3     1  UNL1       -0.0131
     11 C          10.5983    1.4743   -5.4773 C.3     1  UNL1       -0.0131
     12 H           0.6817   -0.3694    0.9578 H       1  UNL1        0.0230
     13 H           0.6817   -0.7925   -0.7375 H       1  UNL1        0.0230
     14 H           0.6817    0.8872   -0.2563 H       1  UNL1        0.0230
     15 H           2.9150   -1.0704    0.2323 H       1  UNL1        0.0263
     16 H           2.9150    0.6094    0.7135 H       1  UNL1        0.0263
     17 H           2.7084    1.2819   -1.6339 H       1  UNL1        0.0265
     18 H           2.7084   -0.3978   -2.1152 H       1  UNL1        0.0265
     19 H           4.9417   -0.6756   -1.1454 H       1  UNL1        0.0265
     20 H           4.9417    1.0041   -0.6641 H       1  UNL1        0.0265
     21 H           4.7350    1.6766   -3.0116 H       1  UNL1        0.0265
     22 H           4.7350   -0.0031   -3.4928 H       1  UNL1        0.0265
     23 H           6.9683   -0.2809   -2.5230 H       1  UNL1        0.0266
     24 H           6.9684    1.3988   -2.0418 H       1  UNL1        0.0266
     25 H           6.7617    2.0713   -4.3892 H       1  UNL1        0.0278
     26 H           6.7617    0.3916   -4.8705 H       1  UNL1        0.0278
     27 H           8.9950    0.1138   -3.9007 H       1  UNL1        0.0426
     28 H           8.9950    1.7935   -3.4194 H       1  UNL1        0.0426
     29 H           7.5683    2.8190   -5.8128 H       1  UNL1        0.0391
     30 H           8.9950    3.0968   -6.7826 H       1  UNL1        0.0391
     31 H           8.9950    3.5199   -5.0873 H       1  UNL1        0.0391
     32 H          10.9550    0.4955   -5.2330 H       1  UNL1        0.0391
     33 H          10.9550    2.1752   -4.7517 H       1  UNL1        0.0391
     34 H          10.9550    1.7521   -6.4470 H       1  UNL1        0.0391
@<TRIPOS>BOND
     1     1     2    1
     2     2     3    1
     3     3     4    1
     4     4     5    1
     5     5     6    1
     6     6     7    1
     7     7     8    1
     8     8     9    1
     9     9    10    1
    10     9    11    1
    11     1    12    1
    12     1    13    1
    13     1    14    1
    14     2    15    1
    15     2    16    1
    16     3    17    1
    17     3    18    1
    18     4    19    1
    19     4    20    1
    20     5    21    1
    21     5    22    1
    22     6    23    1
    23     6    24    1
    24     7    25    1
    25     7    26    1
    26     8    27    1
    27     8    28    1
    28    10    29    1
    29    10    30    1
    30    10    31    1
    31    11    32    1
    32    11    33    1
    33    11    34    1
