@<TRIPOS>MOLECULE
*****
 34 35 0 0 0
SMALL
GASTEIGER

@<TRIPOS>ATOM
      1 C           0.9740    0.0274    0.0926 C.3     1  UNL1       -0.0038
      2 C           2.4940    0.0274    0.0926 C.3     1  UNL1       -0.0364
      3 C           3.0006    0.4363    1.4661 C.3     1  UNL1       -0.0260
      4 C           2.4940   -0.5487    2.5069 C.3     1  UNL1        0.0019
      5 N           1.0240   -0.5487    2.5069 N.3     1  UNL1       -0.2997
      6 C           0.5340   -1.5013    3.5136 C.3     1  UNL1        0.0115
      7 C          -0.9860   -1.5013    3.5136 C.3     1  UNL1        0.0087
      8 N          -1.4760   -2.4540    4.5202 N.3     1  UNL1       -0.3136
      9 C          -2.9460   -2.4540    4.5202 C.3     1  UNL1        0.0087
     10 C           0.5340   -0.9442    1.1786 C.3     1  UNL1        0.0115
     11 C           4.5206    0.4363    1.4661 C.3     1  UNL1       -0.0364
     12 C           5.0273    0.8452    2.8396 C.3     1  UNL1       -0.0038
     13 N           0.4840   -0.3680   -1.2357 N.3     1  UNL1       -0.3160
     14 H           0.6173    1.0087    0.3267 H       1  UNL1        0.0424
     15 H           0.6173   -0.6660    0.8253 H       1  UNL1        0.0424
     16 H           2.8507    0.7208   -0.6401 H       1  UNL1        0.0281
     17 H           2.8507   -0.9538   -0.1416 H       1  UNL1        0.0281
     18 H           2.6440    1.4176    1.7002 H       1  UNL1        0.0314
     19 H           2.8506   -0.2609    3.4738 H       1  UNL1        0.0429
     20 H           2.8506   -1.5300    2.2728 H       1  UNL1        0.0429
     21 H           0.8906   -1.2135    4.4804 H       1  UNL1        0.0439
     22 H           0.8906   -2.4826    3.2794 H       1  UNL1        0.0439
     23 H          -1.3427   -1.7892    2.5467 H       1  UNL1        0.0437
     24 H          -1.3427   -0.5201    3.7477 H       1  UNL1        0.0437
     25 H          -1.1360   -2.1796    5.4419 H       1  UNL1        0.1220
     26 H          -3.5136   -1.7582    5.1021 H       1  UNL1        0.0437
     27 H          -3.7711   -3.1301    4.6037 H       1  UNL1        0.0437
     28 H           0.2623   -0.1644    0.4982 H       1  UNL1        0.0439
     29 H           1.0305   -1.5142    0.4214 H       1  UNL1        0.0439
     30 H           4.8773    1.1297    0.7334 H       1  UNL1        0.0281
     31 H           4.8773   -0.5449    1.2319 H       1  UNL1        0.0281
     32 H           5.3654    1.8301    3.0858 H       1  UNL1        0.0424
     33 H           5.5300    0.5383    3.7329 H       1  UNL1        0.0424
     34 H           0.1617   -1.3069   -1.4705 H       1  UNL1        0.1219
@<TRIPOS>BOND
     1     1     2    1
     2     2     3    1
     3     3     4    1
     4     4     5    1
     5     5     6    1
     6     6     7    1
     7     7     8    1
     8     8     9    1
     9     9    10    1
    10     5    10    1
    11     3    11    1
    12    11    12    1
    13    12    13    1
    14     1    13    1
    15     1    14    1
    16     1    15    1
    17     2    16    1
    18     2    17    1
    19     3    18    1
    20     4    19    1
    21     4    20    1
    22     6    21    1
    23     6    22    1
    24     7    23    1
    25     7    24    1
    26     8    25    1
    27     9    26    1
    28     9    27    1
    29    10    28    1
    30    10    29    1
    31    11    30    1
    32    11    31    1
    33    12    32    1
    34    12    33    1
    35    13    34    1
