@<TRIPOS>MOLECULE
*****
 30 30 0 0 0
SMALL
GASTEIGER

@<TRIPOS>ATOM
      1 C           1.0520    0.0410    0.0749 C.3     1  UNL1       -0.0641
      2 C           2.5720    0.0410    0.0749 C.3     1  UNL1       -0.0431
      3 C           3.0787    1.4280    0.4353 C.3     1  UNL1       -0.0012
      4 N           4.5487    1.4280    0.4353 N.3     1  UNL1       -0.2994
      5 C           5.0387    2.7694    0.7838 C.3     1  UNL1        0.0148
      6 C           6.5587    2.7694    0.7838 C.3     1  UNL1        0.0275
      7 N           7.0487    4.1108    1.1323 N.am    1  UNL1       -0.2993
      8 C           6.0934    5.1922    1.4132 C.2     1  UNL1        0.2125
      9 C           6.6001    6.5792    1.7736 C.3     1  UNL1        0.0124
     10 O           4.8439    4.9674    1.3548 O.2     1  UNL1       -0.2759
     11 C           8.4939    4.3708    1.1998 C.3     1  UNL1        0.0275
     12 C           5.0387    1.0591   -0.9007 C.3     1  UNL1        0.0148
     13 H           0.6954   -0.9354   -0.1787 H       1  UNL1        0.0230
     14 H           0.6954    0.7488   -0.6438 H       1  UNL1        0.0230
     15 H           0.6954    0.3095    1.0473 H       1  UNL1        0.0230
     16 H           2.9287   -0.2275   -0.8975 H       1  UNL1        0.0275
     17 H           2.9287   -0.6669    0.7937 H       1  UNL1        0.0275
     18 H           2.7220    1.6965    1.4077 H       1  UNL1        0.0426
     19 H           2.7220    2.1359   -0.2835 H       1  UNL1        0.0426
     20 H           4.6820    3.0379    1.7562 H       1  UNL1        0.0442
     21 H           4.6820    3.4773    0.0650 H       1  UNL1        0.0442
     22 H           6.9154    2.5009   -0.1886 H       1  UNL1        0.0477
     23 H           6.9154    2.0615    1.5025 H       1  UNL1        0.0477
     24 H           7.6701    6.5792    1.7736 H       1  UNL1        0.0323
     25 H           6.2434    6.8478    2.7460 H       1  UNL1        0.0323
     26 H           6.2434    7.2871    1.0548 H       1  UNL1        0.0323
     27 H           9.0909    4.1264    2.0535 H       1  UNL1        0.0477
     28 H           9.2471    5.0910    0.9571 H       1  UNL1        0.0477
     29 H           5.3489    0.0469   -1.0563 H       1  UNL1        0.0442
     30 H           4.5381    1.1089   -1.8450 H       1  UNL1        0.0442
@<TRIPOS>BOND
     1     1     2    1
     2     2     3    1
     3     3     4    1
     4     4     5    1
     5     5     6    1
     6     6     7    1
     7     7     8   am
     8     8     9    1
     9     8    10    2
    10     7    11    1
    11    11    12    1
    12     4    12    1
    13     1    13    1
    14     1    14    1
    15     1    15    1
    16     2    16    1
    17     2    17    1
    18     3    18    1
    19     3    19    1
    20     5    20    1
    21     5    21    1
    22     6    22    1
    23     6    23    1
    24     9    24    1
    25     9    25    1
    26     9    26    1
    27    11    27    1
    28    11    28    1
    29    12    29    1
    30    12    30    1
