@<TRIPOS>MOLECULE
*****
 64 64 0 0 0
SMALL
GASTEIGER

@<TRIPOS>ATOM
      1 N           1.0180   -0.0983   -0.0043 N.3     1  UNL1       -0.3279
      2 C           2.4880   -0.0983   -0.0043 C.3     1  UNL1        0.0166
      3 C           2.9946    0.1055    1.4143 C.3     1  UNL1        0.0600
      4 O           4.4146    0.1055    1.4143 O.3     1  UNL1       -0.3763
      5 C           4.8879    0.2958    2.7394 C.3     1  UNL1        0.0711
      6 C           6.4079    0.2958    2.7394 C.3     1  UNL1        0.0711
      7 O           6.8813    0.4861    4.0646 O.3     1  UNL1       -0.3752
      8 C           8.3013    0.4861    4.0646 C.3     1  UNL1        0.0711
      9 C           8.8079    0.6899    5.4831 C.3     1  UNL1        0.0711
     10 O          10.2279    0.6899    5.4831 O.3     1  UNL1       -0.3752
     11 C          10.7013    0.8802    6.8083 C.3     1  UNL1        0.0711
     12 C          12.2213    0.8802    6.8083 C.3     1  UNL1        0.0711
     13 O          12.6946    1.0705    8.1335 O.3     1  UNL1       -0.3752
     14 C          14.1146    1.0705    8.1335 C.3     1  UNL1        0.0711
     15 C          14.6213    1.2743    9.5520 C.3     1  UNL1        0.0711
     16 O          16.0413    1.2743    9.5520 O.3     1  UNL1       -0.3757
     17 C          16.5146    1.4646   10.8772 C.3     1  UNL1        0.0673
     18 C          18.0346    1.4646   10.8772 C.3     1  UNL1        0.0665
     19 N          18.5246    1.6617   12.2491 N.ar    1  UNL1       -0.2492
     20 C          19.8939    1.6978   12.5010 C.ar    1  UNL1        0.0487
     21 C          20.3740    1.8909   13.8451 C.ar    1  UNL1        0.0828
     22 C          19.3863    2.0551   14.9886 C.3     1  UNL1       -0.0071
     23 C          17.9678    1.9775   14.4480 C.3     1  UNL1       -0.0455
     24 C          16.9800    2.1417   15.5916 C.3     1  UNL1       -0.0294
     25 C          15.5615    2.0641   15.0510 C.3     1  UNL1        0.0442
     26 O          14.6388    2.2175   16.1194 O.3     1  UNL1       -0.3950
     27 N          21.7434    1.9271   14.0970 N.ar    1  UNL1       -0.1345
     28 N          17.6503    1.8070   13.2613 N.ar    1  UNL1       -0.0654
     29 H           0.6780   -0.2350   -0.9562 H       1  UNL1        0.1183
     30 H           0.6780    0.7944    0.3533 H       1  UNL1        0.1183
     31 H           2.8446    0.6948   -0.6277 H       1  UNL1        0.0444
     32 H           2.8446   -1.0348   -0.3793 H       1  UNL1        0.0444
     33 H           2.6380   -0.6876    2.0377 H       1  UNL1        0.0572
     34 H           2.6379    1.0419    1.7893 H       1  UNL1        0.0572
     35 H           4.5313   -0.4973    3.3629 H       1  UNL1        0.0583
     36 H           4.5313    1.2323    3.1145 H       1  UNL1        0.0583
     37 H           6.7646    1.0889    2.1160 H       1  UNL1        0.0583
     38 H           6.7646   -0.6407    2.3644 H       1  UNL1        0.0583
     39 H           8.6579    1.2792    3.4411 H       1  UNL1        0.0583
     40 H           8.6579   -0.4504    3.6896 H       1  UNL1        0.0583
     41 H           8.4513   -0.1032    6.1066 H       1  UNL1        0.0583
     42 H           8.4513    1.6264    5.8582 H       1  UNL1        0.0583
     43 H          10.3446    0.0871    7.4318 H       1  UNL1        0.0583
     44 H          10.3446    1.8167    7.1834 H       1  UNL1        0.0583
     45 H          12.5779    1.6733    6.1849 H       1  UNL1        0.0583
     46 H          12.5779   -0.0563    6.4333 H       1  UNL1        0.0583
     47 H          14.4713    1.8636    7.5100 H       1  UNL1        0.0583
     48 H          14.4713    0.1341    7.7585 H       1  UNL1        0.0583
     49 H          14.2646    0.4812   10.1755 H       1  UNL1        0.0583
     50 H          14.2646    2.2108    9.9271 H       1  UNL1        0.0583
     51 H          16.1579    0.6716   11.5007 H       1  UNL1        0.0578
     52 H          16.1579    2.4011   11.2523 H       1  UNL1        0.0578
     53 H          18.3912    2.2577   10.2538 H       1  UNL1        0.0532
     54 H          18.3913    0.5281   10.5022 H       1  UNL1        0.0532
     55 H          20.5646    1.5863   11.7246 H       1  UNL1        0.0845
     56 H          19.5379    3.0051   15.4572 H       1  UNL1        0.0329
     57 H          19.5379    1.2755   15.7056 H       1  UNL1        0.0329
     58 H          17.8162    1.0276   13.9795 H       1  UNL1        0.0270
     59 H          17.8162    2.7571   13.7310 H       1  UNL1        0.0270
     60 H          17.1316    3.0917   16.0602 H       1  UNL1        0.0287
     61 H          17.1316    1.3621   16.3086 H       1  UNL1        0.0287
     62 H          15.4099    1.1142   14.5824 H       1  UNL1        0.0557
     63 H          15.4099    2.8437   14.3340 H       1  UNL1        0.0557
     64 H          14.7762    1.5108   16.7693 H       1  UNL1        0.2094
@<TRIPOS>BOND
     1     1     2    1
     2     2     3    1
     3     3     4    1
     4     4     5    1
     5     5     6    1
     6     6     7    1
     7     7     8    1
     8     8     9    1
     9     9    10    1
    10    10    11    1
    11    11    12    1
    12    12    13    1
    13    13    14    1
    14    14    15    1
    15    15    16    1
    16    16    17    1
    17    17    18    1
    18    18    19    1
    19    19    20   ar
    20    20    21   ar
    21    21    22    1
    22    22    23    1
    23    23    24    1
    24    24    25    1
    25    25    26    1
    26    21    27   ar
    27    27    28   ar
    28    19    28   ar
    29     1    29    1
    30     1    30    1
    31     2    31    1
    32     2    32    1
    33     3    33    1
    34     3    34    1
    35     5    35    1
    36     5    36    1
    37     6    37    1
    38     6    38    1
    39     8    39    1
    40     8    40    1
    41     9    41    1
    42     9    42    1
    43    11    43    1
    44    11    44    1
    45    12    45    1
    46    12    46    1
    47    14    47    1
    48    14    48    1
    49    15    49    1
    50    15    50    1
    51    17    51    1
    52    17    52    1
    53    18    53    1
    54    18    54    1
    55    20    55    1
    56    22    56    1
    57    22    57    1
    58    23    58    1
    59    23    59    1
    60    24    60    1
    61    24    61    1
    62    25    62    1
    63    25    63    1
    64    26    64    1
