@<TRIPOS>MOLECULE
*****
 46 45 0 0 0
SMALL
GASTEIGER

@<TRIPOS>ATOM
      1 N           1.0983    0.0118   -0.0139 N.3     1  UNL1       -0.3279
      2 C           2.5683    0.0118   -0.0139 C.3     1  UNL1        0.0166
      3 C           3.0750   -0.5598   -1.3281 C.3     1  UNL1        0.0600
      4 O           4.4950   -0.5598   -1.3281 O.3     1  UNL1       -0.3763
      5 C           4.9683   -1.0937   -2.5558 C.3     1  UNL1        0.0711
      6 C           6.4883   -1.0937   -2.5558 C.3     1  UNL1        0.0711
      7 O           6.9616   -1.6277   -3.7835 O.3     1  UNL1       -0.3752
      8 C           8.3816   -1.6277   -3.7835 C.3     1  UNL1        0.0711
      9 C           8.8883   -2.1992   -5.0977 C.3     1  UNL1        0.0711
     10 O          10.3083   -2.1992   -5.0977 O.3     1  UNL1       -0.3752
     11 C          10.7816   -2.7332   -6.3254 C.3     1  UNL1        0.0711
     12 C          12.3016   -2.7332   -6.3254 C.3     1  UNL1        0.0711
     13 O          12.7750   -3.2671   -7.5531 O.3     1  UNL1       -0.3752
     14 C          14.1950   -3.2671   -7.5531 C.3     1  UNL1        0.0711
     15 C          14.7016   -3.8386   -8.8672 C.3     1  UNL1        0.0711
     16 O          16.1216   -3.8386   -8.8672 O.3     1  UNL1       -0.3752
     17 C          16.5950   -4.3726  -10.0950 C.3     1  UNL1        0.0708
     18 C          18.1150   -4.3726  -10.0950 C.3     1  UNL1        0.0676
     19 O          18.5883   -4.9065  -11.3227 O.3     1  UNL1       -0.3927
     20 H           0.7583    0.3953    0.8680 H       1  UNL1        0.1183
     21 H           0.7583   -0.9437   -0.1227 H       1  UNL1        0.1183
     22 H           2.9250   -0.5882    0.7971 H       1  UNL1        0.0444
     23 H           2.9250    1.0141    0.1002 H       1  UNL1        0.0444
     24 H           2.7183    0.0402   -2.1391 H       1  UNL1        0.0572
     25 H           2.7183   -1.5621   -1.4422 H       1  UNL1        0.0572
     26 H           4.6116   -0.4937   -3.3668 H       1  UNL1        0.0583
     27 H           4.6116   -2.0961   -2.6699 H       1  UNL1        0.0583
     28 H           6.8450   -1.6937   -1.7448 H       1  UNL1        0.0583
     29 H           6.8450   -0.0914   -2.4417 H       1  UNL1        0.0583
     30 H           8.7383   -2.2277   -2.9725 H       1  UNL1        0.0583
     31 H           8.7383   -0.6253   -3.6694 H       1  UNL1        0.0583
     32 H           8.5316   -1.5992   -5.9086 H       1  UNL1        0.0583
     33 H           8.5316   -3.2015   -5.2118 H       1  UNL1        0.0583
     34 H          10.4250   -2.1332   -7.1364 H       1  UNL1        0.0583
     35 H          10.4250   -3.7355   -6.4395 H       1  UNL1        0.0583
     36 H          12.6583   -3.3331   -5.5144 H       1  UNL1        0.0583
     37 H          12.6583   -1.7308   -6.2112 H       1  UNL1        0.0583
     38 H          14.5516   -3.8671   -6.7421 H       1  UNL1        0.0583
     39 H          14.5516   -2.2648   -7.4390 H       1  UNL1        0.0583
     40 H          14.3450   -3.2386   -9.6782 H       1  UNL1        0.0583
     41 H          14.3450   -4.8410   -8.9814 H       1  UNL1        0.0583
     42 H          16.2383   -3.7726  -10.9059 H       1  UNL1        0.0583
     43 H          16.2383   -5.3749  -10.2091 H       1  UNL1        0.0583
     44 H          18.4716   -4.9726   -9.2840 H       1  UNL1        0.0580
     45 H          18.4716   -3.3702   -9.9808 H       1  UNL1        0.0580
     46 H          18.2649   -5.8152  -11.4261 H       1  UNL1        0.2095
@<TRIPOS>BOND
     1     1     2    1
     2     2     3    1
     3     3     4    1
     4     4     5    1
     5     5     6    1
     6     6     7    1
     7     7     8    1
     8     8     9    1
     9     9    10    1
    10    10    11    1
    11    11    12    1
    12    12    13    1
    13    13    14    1
    14    14    15    1
    15    15    16    1
    16    16    17    1
    17    17    18    1
    18    18    19    1
    19     1    20    1
    20     1    21    1
    21     2    22    1
    22     2    23    1
    23     3    24    1
    24     3    25    1
    25     5    26    1
    26     5    27    1
    27     6    28    1
    28     6    29    1
    29     8    30    1
    30     8    31    1
    31     9    32    1
    32     9    33    1
    33    11    34    1
    34    11    35    1
    35    12    36    1
    36    12    37    1
    37    14    38    1
    38    14    39    1
    39    15    40    1
    40    15    41    1
    41    17    42    1
    42    17    43    1
    43    18    44    1
    44    18    45    1
    45    19    46    1
