@<TRIPOS>MOLECULE
*****
 26 26 0 0 0
SMALL
GASTEIGER

@<TRIPOS>ATOM
      1 C           0.9788    0.0553   -0.0806 C.3     1  UNL1       -0.0191
      2 C           2.4988    0.0553   -0.0806 C.ar    1  UNL1        0.0798
      3 C           3.2189    1.0289    0.6990 C.ar    1  UNL1        0.0484
      4 N           4.6117    1.0289    0.6990 N.ar    1  UNL1       -0.2493
      5 C           5.3467    0.0351   -0.0967 C.3     1  UNL1        0.0665
      6 C           4.3589   -0.8667   -0.8188 C.3     1  UNL1        0.0673
      7 O           5.0689   -1.8266   -1.5875 O.3     1  UNL1       -0.3767
      8 C           4.1462   -2.6691   -2.2621 C.3     1  UNL1        0.0600
      9 C           4.9062   -3.6967   -3.0849 C.3     1  UNL1        0.0166
     10 N           3.9509   -4.5689   -3.7832 N.3     1  UNL1       -0.3279
     11 N           5.2844    1.9384    1.4273 N.ar    1  UNL1       -0.0654
     12 N           3.1952   -0.8863   -0.8345 N.ar    1  UNL1       -0.1348
     13 H           0.6221    0.8427    0.5500 H       1  UNL1        0.0294
     14 H           0.6221   -0.8845    0.2861 H       1  UNL1        0.0294
     15 H           0.6221    0.2076   -1.0778 H       1  UNL1        0.0294
     16 H           2.7029    1.7265    1.2576 H       1  UNL1        0.0845
     17 H           5.9618   -0.5552    0.5498 H       1  UNL1        0.0532
     18 H           5.9618    0.5369   -0.8141 H       1  UNL1        0.0532
     19 H           3.7438   -0.2764   -1.4654 H       1  UNL1        0.0578
     20 H           3.7438   -1.3685   -0.1014 H       1  UNL1        0.0578
     21 H           3.5310   -2.0788   -2.9086 H       1  UNL1        0.0572
     22 H           3.5310   -3.1710   -1.5447 H       1  UNL1        0.0572
     23 H           5.5213   -4.2870   -2.4383 H       1  UNL1        0.0444
     24 H           5.5213   -3.1949   -3.8023 H       1  UNL1        0.0444
     25 H           3.3645   -5.0472   -3.0993 H       1  UNL1        0.1183
     26 H           4.4609   -5.2584   -4.3354 H       1  UNL1        0.1183
@<TRIPOS>BOND
     1     1     2    1
     2     2     3   ar
     3     3     4   ar
     4     4     5    1
     5     5     6    1
     6     6     7    1
     7     7     8    1
     8     8     9    1
     9     9    10    1
    10     4    11   ar
    11    11    12   ar
    12     2    12   ar
    13     1    13    1
    14     1    14    1
    15     1    15    1
    16     3    16    1
    17     5    17    1
    18     5    18    1
    19     6    19    1
    20     6    20    1
    21     8    21    1
    22     8    22    1
    23     9    23    1
    24     9    24    1
    25    10    25    1
    26    10    26    1
