@<TRIPOS>MOLECULE
*****
 26 25 0 0 0
SMALL
GASTEIGER

@<TRIPOS>ATOM
      1 C           0.9225   -0.0259    0.0576 C.3     1  UNL1       -0.0653
      2 C           2.4425   -0.0259    0.0576 C.3     1  UNL1       -0.0559
      3 C           2.9491   -1.1124    0.9921 C.3     1  UNL1       -0.0533
      4 C           4.4691   -1.1124    0.9921 C.3     1  UNL1       -0.0531
      5 C           4.9758   -2.1989    1.9266 C.3     1  UNL1       -0.0531
      6 C           6.4958   -2.1989    1.9266 C.3     1  UNL1       -0.0533
      7 C           7.0025   -3.2853    2.8611 C.3     1  UNL1       -0.0559
      8 C           8.5225   -3.2853    2.8611 C.3     1  UNL1       -0.0653
      9 H           0.5658    0.7389   -0.6002 H       1  UNL1        0.0230
     10 H           0.5658    0.1614    1.0489 H       1  UNL1        0.0230
     11 H           0.5658   -0.9780   -0.2758 H       1  UNL1        0.0230
     12 H           2.7991    0.9262    0.3911 H       1  UNL1        0.0263
     13 H           2.7991   -0.2132   -0.9337 H       1  UNL1        0.0263
     14 H           2.5925   -2.0645    0.6586 H       1  UNL1        0.0265
     15 H           2.5925   -0.9251    1.9834 H       1  UNL1        0.0265
     16 H           4.8258   -0.1603    1.3255 H       1  UNL1        0.0265
     17 H           4.8258   -1.2997    0.0008 H       1  UNL1        0.0265
     18 H           4.6191   -3.1510    1.5931 H       1  UNL1        0.0265
     19 H           4.6191   -2.0116    2.9178 H       1  UNL1        0.0265
     20 H           6.8525   -1.2468    2.2600 H       1  UNL1        0.0265
     21 H           6.8525   -2.3862    0.9353 H       1  UNL1        0.0265
     22 H           6.6458   -4.2375    2.5276 H       1  UNL1        0.0263
     23 H           6.6458   -3.0981    3.8523 H       1  UNL1        0.0263
     24 H           8.8791   -3.4726    1.8698 H       1  UNL1        0.0230
     25 H           8.8791   -4.0502    3.5189 H       1  UNL1        0.0230
     26 H           8.8791   -2.3332    3.1945 H       1  UNL1        0.0230
@<TRIPOS>BOND
     1     1     2    1
     2     2     3    1
     3     3     4    1
     4     4     5    1
     5     5     6    1
     6     6     7    1
     7     7     8    1
     8     1     9    1
     9     1    10    1
    10     1    11    1
    11     2    12    1
    12     2    13    1
    13     3    14    1
    14     3    15    1
    15     4    16    1
    16     4    17    1
    17     5    18    1
    18     5    19    1
    19     6    20    1
    20     6    21    1
    21     7    22    1
    22     7    23    1
    23     8    24    1
    24     8    25    1
    25     8    26    1
