@<TRIPOS>MOLECULE
*****
 31 31 0 0 0
SMALL
GASTEIGER

@<TRIPOS>ATOM
      1 C           1.0237    0.0678    0.0696 C.3     1  UNL1       -0.0653
      2 C           2.5437    0.0678    0.0696 C.3     1  UNL1       -0.0555
      3 C           3.0504   -0.6779   -1.1542 C.3     1  UNL1       -0.0450
      4 C           4.5704   -0.6779   -1.1542 C.3     1  UNL1        0.0240
      5 C           5.0770   -1.4237   -2.3779 C.2     1  UNL1        0.2133
      6 O           4.2512   -1.9263   -3.2028 O.2     1  UNL1       -0.2758
      7 N           6.5223   -1.5635   -2.6073 N.am    1  UNL1       -0.3112
      8 C           7.0123   -2.2847   -3.7908 C.3     1  UNL1        0.0368
      9 C           8.5323   -2.2847   -3.7908 C.ar    1  UNL1       -0.0303
     10 C           9.2524   -2.9337   -4.8559 C.ar    1  UNL1       -0.0571
     11 C          10.6926   -2.9337   -4.8559 C.ar    1  UNL1       -0.0615
     12 C          11.4127   -3.5827   -5.9210 C.ar    1  UNL1       -0.0617
     13 C          12.8529   -3.5827   -5.9210 C.ar    1  UNL1       -0.0615
     14 C           9.2524   -1.6356   -2.7257 C.ar    1  UNL1       -0.0571
     15 H           0.6671    0.5927    0.9311 H       1  UNL1        0.0230
     16 H           0.6670   -0.9407    0.0935 H       1  UNL1        0.0230
     17 H           0.6670    0.5513   -0.8158 H       1  UNL1        0.0230
     18 H           2.9004   -0.4158    0.9549 H       1  UNL1        0.0263
     19 H           2.9004    1.0763    0.0457 H       1  UNL1        0.0263
     20 H           2.6937   -0.1944   -2.0395 H       1  UNL1        0.0270
     21 H           2.6937   -1.6865   -1.1303 H       1  UNL1        0.0270
     22 H           4.9270   -1.1615   -0.2688 H       1  UNL1        0.0358
     23 H           4.9270    0.3306   -1.1781 H       1  UNL1        0.0358
     24 H           7.1620   -1.1741   -1.9683 H       1  UNL1        0.1490
     25 H           6.6556   -1.8011   -4.6762 H       1  UNL1        0.0512
     26 H           6.6556   -3.2932   -3.7669 H       1  UNL1        0.0512
     27 H           8.7364   -3.3988   -5.6191 H       1  UNL1        0.0621
     28 H          11.2086   -2.4686   -4.0927 H       1  UNL1        0.0618
     29 H          10.8967   -4.0478   -6.6842 H       1  UNL1        0.0618
     30 H          13.8025   -3.7930   -6.2660 H       1  UNL1        0.0618
     31 H           9.1275   -1.1025   -1.8509 H       1  UNL1        0.0621
@<TRIPOS>BOND
     1     1     2    1
     2     2     3    1
     3     3     4    1
     4     4     5    1
     5     5     6    2
     6     5     7   am
     7     7     8    1
     8     8     9    1
     9     9    10   ar
    10    10    11   ar
    11    11    12   ar
    12    12    13   ar
    13    13    14   ar
    14     9    14   ar
    15     1    15    1
    16     1    16    1
    17     1    17    1
    18     2    18    1
    19     2    19    1
    20     3    20    1
    21     3    21    1
    22     4    22    1
    23     4    23    1
    24     7    24    1
    25     8    25    1
    26     8    26    1
    27    10    27    1
    28    11    28    1
    29    12    29    1
    30    13    30    1
    31    14    31    1
