@<TRIPOS>MOLECULE
*****
 56 55 0 0 0
SMALL
GASTEIGER

@<TRIPOS>ATOM
      1 C           1.0364   -0.0695   -0.0620 C.3     1  UNL1       -0.0563
      2 C           2.5564   -0.0695   -0.0620 C.3     1  UNL1       -0.0152
      3 C           3.0631   -1.4635    0.2704 C.3     1  UNL1       -0.0563
      4 C           3.0631    0.3396   -1.4354 C.2     1  UNL1       -0.0579
      5 C           2.7344   -0.3991   -2.5295 C.2     1  UNL1        0.0874
      6 C           3.2411    0.0100   -3.9029 C.1     1  UNL1        0.1021
      7 N           3.6614    0.3494   -5.0423 N.1     1  UNL1       -0.1908
      8 C           1.8606   -1.6336   -2.3785 C.2     1  UNL1        0.1601
      9 O           1.5535   -2.3237   -3.4006 O.2     1  UNL1       -0.2950
     10 C           3.0631    0.9154    0.9790 C.3     1  UNL1       -0.0423
     11 C           4.5831    0.9154    0.9790 C.3     1  UNL1       -0.0287
     12 C           5.0897    1.9002    2.0201 C.3     1  UNL1        0.0478
     13 O           6.5097    1.9002    2.0201 O.3     1  UNL1       -0.3775
     14 C           6.9831    2.8203    2.9926 C.3     1  UNL1        0.0710
     15 C           8.5031    2.8203    2.9926 C.3     1  UNL1        0.0711
     16 O           8.9764    3.7404    3.9651 O.3     1  UNL1       -0.3752
     17 C          10.3964    3.7404    3.9651 C.3     1  UNL1        0.0711
     18 C          10.9030    4.7252    5.0062 C.3     1  UNL1        0.0711
     19 O          12.3230    4.7252    5.0062 O.3     1  UNL1       -0.3752
     20 C          12.7964    5.6453    5.9787 C.3     1  UNL1        0.0711
     21 C          14.3164    5.6453    5.9787 C.3     1  UNL1        0.0711
     22 O          14.7897    6.5654    6.9512 O.3     1  UNL1       -0.3752
     23 C          16.2097    6.5654    6.9512 C.3     1  UNL1        0.0708
     24 C          16.7164    7.5503    7.9922 C.3     1  UNL1        0.0676
     25 O          18.1364    7.5503    7.9922 O.3     1  UNL1       -0.3927
     26 H           0.6797   -0.7628   -0.7948 H       1  UNL1        0.0238
     27 H           0.6797    0.9118   -0.2960 H       1  UNL1        0.0238
     28 H           0.6797   -0.3575    0.9048 H       1  UNL1        0.0238
     29 H           2.7064   -2.1568   -0.4624 H       1  UNL1        0.0238
     30 H           2.7064   -1.7515    1.2372 H       1  UNL1        0.0238
     31 H           4.1331   -1.4635    0.2704 H       1  UNL1        0.0238
     32 H           3.6564    1.1778   -1.5379 H       1  UNL1        0.0591
     33 H           1.5166   -1.9114   -1.4460 H       1  UNL1        0.1089
     34 H           2.7064    0.6274    1.9459 H       1  UNL1        0.0274
     35 H           2.7064    1.8966    0.7450 H       1  UNL1        0.0274
     36 H           4.9397    1.2034    0.0122 H       1  UNL1        0.0288
     37 H           4.9397   -0.0659    1.2130 H       1  UNL1        0.0288
     38 H           4.7331    1.6122    2.9869 H       1  UNL1        0.0560
     39 H           4.7331    2.8815    1.7861 H       1  UNL1        0.0560
     40 H           6.6264    2.5323    3.9594 H       1  UNL1        0.0583
     41 H           6.6264    3.8016    2.7586 H       1  UNL1        0.0583
     42 H           8.8597    3.1083    2.0258 H       1  UNL1        0.0583
     43 H           8.8597    1.8390    3.2266 H       1  UNL1        0.0583
     44 H          10.7531    4.0284    2.9983 H       1  UNL1        0.0583
     45 H          10.7531    2.7591    4.1991 H       1  UNL1        0.0583
     46 H          10.5464    4.4372    5.9730 H       1  UNL1        0.0583
     47 H          10.5464    5.7065    4.7722 H       1  UNL1        0.0583
     48 H          12.4397    5.3573    6.9455 H       1  UNL1        0.0583
     49 H          12.4397    6.6266    5.7447 H       1  UNL1        0.0583
     50 H          14.6730    5.9333    5.0119 H       1  UNL1        0.0583
     51 H          14.6730    4.6640    6.2127 H       1  UNL1        0.0583
     52 H          16.5664    6.8534    5.9844 H       1  UNL1        0.0583
     53 H          16.5664    5.5841    7.1852 H       1  UNL1        0.0583
     54 H          16.3597    7.2623    8.9591 H       1  UNL1        0.0580
     55 H          16.3597    8.5315    7.7582 H       1  UNL1        0.0580
     56 H          18.4597    6.6607    8.2044 H       1  UNL1        0.2095
@<TRIPOS>BOND
     1     1     2    1
     2     2     3    1
     3     2     4    1
     4     4     5    2
     5     5     6    1
     6     6     7    3
     7     5     8    1
     8     8     9    2
     9     2    10    1
    10    10    11    1
    11    11    12    1
    12    12    13    1
    13    13    14    1
    14    14    15    1
    15    15    16    1
    16    16    17    1
    17    17    18    1
    18    18    19    1
    19    19    20    1
    20    20    21    1
    21    21    22    1
    22    22    23    1
    23    23    24    1
    24    24    25    1
    25     1    26    1
    26     1    27    1
    27     1    28    1
    28     3    29    1
    29     3    30    1
    30     3    31    1
    31     4    32    1
    32     8    33    1
    33    10    34    1
    34    10    35    1
    35    11    36    1
    36    11    37    1
    37    12    38    1
    38    12    39    1
    39    14    40    1
    40    14    41    1
    41    15    42    1
    42    15    43    1
    43    17    44    1
    44    17    45    1
    45    18    46    1
    46    18    47    1
    47    20    48    1
    48    20    49    1
    49    21    50    1
    50    21    51    1
    51    23    52    1
    52    23    53    1
    53    24    54    1
    54    24    55    1
    55    25    56    1
