@<TRIPOS>MOLECULE
*****
 37 36 0 0 0
SMALL
GASTEIGER

@<TRIPOS>ATOM
      1 C           1.0046   -0.0916    0.0399 C.3     1  UNL1        0.0365
      2 O           2.4246   -0.0916    0.0399 O.3     1  UNL1       -0.3807
      3 C           2.8980   -1.2703   -0.5950 C.3     1  UNL1        0.0706
      4 C           4.4180   -1.2703   -0.5950 C.3     1  UNL1        0.0711
      5 O           4.8913   -2.4490   -1.2298 O.3     1  UNL1       -0.3752
      6 C           6.3113   -2.4490   -1.2298 C.3     1  UNL1        0.0711
      7 C           6.8180   -3.7107   -1.9094 C.3     1  UNL1        0.0711
      8 O           8.2380   -3.7107   -1.9094 O.3     1  UNL1       -0.3752
      9 C           8.7113   -4.8894   -2.5442 C.3     1  UNL1        0.0711
     10 C          10.2313   -4.8894   -2.5442 C.3     1  UNL1        0.0711
     11 O          10.7046   -6.0681   -3.1791 O.3     1  UNL1       -0.3752
     12 C          12.1246   -6.0681   -3.1791 C.3     1  UNL1        0.0711
     13 C          12.6313   -7.3298   -3.8587 C.3     1  UNL1        0.0706
     14 O          14.0513   -7.3298   -3.8587 O.3     1  UNL1       -0.3807
     15 C          14.5246   -8.5085   -4.4935 C.3     1  UNL1        0.0365
     16 H           0.6480    0.7966    0.5183 H       1  UNL1        0.0524
     17 H           0.6480   -0.9500    0.5699 H       1  UNL1        0.0524
     18 H           0.6480   -0.1214   -0.9685 H       1  UNL1        0.0524
     19 H           2.5413   -1.3001   -1.6033 H       1  UNL1        0.0582
     20 H           2.5413   -2.1286   -0.0650 H       1  UNL1        0.0582
     21 H           4.7746   -1.2405    0.4134 H       1  UNL1        0.0583
     22 H           4.7746   -0.4119   -1.1250 H       1  UNL1        0.0583
     23 H           6.6680   -2.4192   -0.2215 H       1  UNL1        0.0583
     24 H           6.6680   -1.5906   -1.7598 H       1  UNL1        0.0583
     25 H           6.4613   -3.7405   -2.9178 H       1  UNL1        0.0583
     26 H           6.4613   -4.5690   -1.3794 H       1  UNL1        0.0583
     27 H           8.3546   -4.9192   -3.5526 H       1  UNL1        0.0583
     28 H           8.3546   -5.7477   -2.0143 H       1  UNL1        0.0583
     29 H          10.5880   -4.8596   -1.5359 H       1  UNL1        0.0583
     30 H          10.5880   -4.0310   -3.0742 H       1  UNL1        0.0583
     31 H          12.4813   -6.0383   -2.1707 H       1  UNL1        0.0583
     32 H          12.4813   -5.2097   -3.7091 H       1  UNL1        0.0583
     33 H          12.2746   -7.3596   -4.8670 H       1  UNL1        0.0582
     34 H          12.2746   -8.1881   -3.3287 H       1  UNL1        0.0582
     35 H          15.5946   -8.5085   -4.4935 H       1  UNL1        0.0524
     36 H          14.1679   -8.5383   -5.5019 H       1  UNL1        0.0524
     37 H          14.1679   -9.3668   -3.9635 H       1  UNL1        0.0524
@<TRIPOS>BOND
     1     1     2    1
     2     2     3    1
     3     3     4    1
     4     4     5    1
     5     5     6    1
     6     6     7    1
     7     7     8    1
     8     8     9    1
     9     9    10    1
    10    10    11    1
    11    11    12    1
    12    12    13    1
    13    13    14    1
    14    14    15    1
    15     1    16    1
    16     1    17    1
    17     1    18    1
    18     3    19    1
    19     3    20    1
    20     4    21    1
    21     4    22    1
    22     6    23    1
    23     6    24    1
    24     7    25    1
    25     7    26    1
    26     9    27    1
    27     9    28    1
    28    10    29    1
    29    10    30    1
    30    12    31    1
    31    12    32    1
    32    13    33    1
    33    13    34    1
    34    15    35    1
    35    15    36    1
    36    15    37    1
