@<TRIPOS>MOLECULE
*****
 5 4 0 0 0
SMALL
GASTEIGER

@<TRIPOS>ATOM
      1 C           1.0592   -0.0540    0.0598 C.3     1  UNL1       -0.0776
      2 H           2.1292   -0.0540    0.0598 H       1  UNL1        0.0194
      3 H           0.7025    0.7207    0.7060 H       1  UNL1        0.0194
      4 H           0.7025   -1.0009    0.4077 H       1  UNL1        0.0194
      5 H           0.7025    0.1182   -0.9342 H       1  UNL1        0.0194
@<TRIPOS>BOND
     1     1     2    1
     2     1     3    1
     3     1     4    1
     4     1     5    1
