@<TRIPOS>MOLECULE
*****
 41 40 0 0 0
SMALL
GASTEIGER

@<TRIPOS>ATOM
      1 C           1.0248   -0.0455   -0.0855 C.3     1  UNL1       -0.0653
      2 C           2.5448   -0.0455   -0.0855 C.3     1  UNL1       -0.0559
      3 C           3.0515   -0.7687    1.1517 C.3     1  UNL1       -0.0533
      4 C           4.5715   -0.7687    1.1517 C.3     1  UNL1       -0.0526
      5 C           5.0781   -1.4919    2.3889 C.3     1  UNL1       -0.0448
      6 C           6.5981   -1.4919    2.3889 C.3     1  UNL1        0.0241
      7 C           7.1048   -2.2151    3.6261 C.2     1  UNL1        0.2154
      8 O           6.2789   -2.7026    4.4601 O.2     1  UNL1       -0.2756
      9 N           8.5500   -2.3507    3.8580 N.am    1  UNL1       -0.3033
     10 C           9.5053   -1.7868    2.8934 C.3     1  UNL1        0.0032
     11 C           9.0400   -3.0501    5.0545 C.3     1  UNL1        0.0271
     12 C          10.5600   -3.0501    5.0545 C.3     1  UNL1        0.0141
     13 N          11.0500   -3.7495    6.2511 N.3     1  UNL1       -0.3069
     14 C          10.5600   -5.1354    6.2436 C.3     1  UNL1       -0.0130
     15 C          12.5200   -3.7495    6.2511 C.3     1  UNL1       -0.0130
     16 H           0.6682    0.4636   -0.9564 H       1  UNL1        0.0230
     17 H           0.6681    0.4542    0.7908 H       1  UNL1        0.0230
     18 H           0.6681   -1.0543   -0.0909 H       1  UNL1        0.0230
     19 H           2.9015    0.9633   -0.0801 H       1  UNL1        0.0263
     20 H           2.9015   -0.5452   -0.9619 H       1  UNL1        0.0263
     21 H           2.6948   -1.7775    1.1463 H       1  UNL1        0.0265
     22 H           2.6948   -0.2690    2.0281 H       1  UNL1        0.0265
     23 H           4.9281    0.2401    1.1571 H       1  UNL1        0.0265
     24 H           4.9281   -1.2684    0.2754 H       1  UNL1        0.0265
     25 H           4.7215   -2.5007    2.3835 H       1  UNL1        0.0270
     26 H           4.7215   -0.9922    3.2653 H       1  UNL1        0.0270
     27 H           6.9548   -0.4831    2.3943 H       1  UNL1        0.0358
     28 H           6.9548   -1.9916    1.5126 H       1  UNL1        0.0358
     29 H           8.9703   -1.3192    2.0934 H       1  UNL1        0.0428
     30 H          10.1205   -2.5697    2.5015 H       1  UNL1        0.0428
     31 H          10.1205   -1.0612    3.3832 H       1  UNL1        0.0428
     32 H           8.6834   -4.0589    5.0491 H       1  UNL1        0.0477
     33 H           8.6834   -2.5504    5.9309 H       1  UNL1        0.0477
     34 H          10.9167   -2.0413    5.0600 H       1  UNL1        0.0442
     35 H          10.9167   -3.5498    4.1782 H       1  UNL1        0.0442
     36 H           9.4900   -5.1354    6.2436 H       1  UNL1        0.0391
     37 H          10.9167   -5.6445    7.1145 H       1  UNL1        0.0391
     38 H          10.9167   -5.6351    5.3673 H       1  UNL1        0.0391
     39 H          12.8767   -2.7407    6.2565 H       1  UNL1        0.0391
     40 H          12.8767   -4.2492    5.3747 H       1  UNL1        0.0391
     41 H          12.8767   -4.2586    7.1220 H       1  UNL1        0.0391
@<TRIPOS>BOND
     1     1     2    1
     2     2     3    1
     3     3     4    1
     4     4     5    1
     5     5     6    1
     6     6     7    1
     7     7     8    2
     8     7     9   am
     9     9    10    1
    10     9    11    1
    11    11    12    1
    12    12    13    1
    13    13    14    1
    14    13    15    1
    15     1    16    1
    16     1    17    1
    17     1    18    1
    18     2    19    1
    19     2    20    1
    20     3    21    1
    21     3    22    1
    22     4    23    1
    23     4    24    1
    24     5    25    1
    25     5    26    1
    26     6    27    1
    27     6    28    1
    28    10    29    1
    29    10    30    1
    30    10    31    1
    31    11    32    1
    32    11    33    1
    33    12    34    1
    34    12    35    1
    35    14    36    1
    36    14    37    1
    37    14    38    1
    38    15    39    1
    39    15    40    1
    40    15    41    1
