@<TRIPOS>MOLECULE
*****
 30 29 0 0 0
SMALL
GASTEIGER

@<TRIPOS>ATOM
      1 C           1.0661   -0.0617   -0.0427 C.3     1  UNL1       -0.0653
      2 C           2.5861   -0.0617   -0.0427 C.3     1  UNL1       -0.0559
      3 C           3.0928    1.1246    0.7613 C.3     1  UNL1       -0.0519
      4 C           4.6128    1.1246    0.7613 C.3     1  UNL1       -0.0374
      5 C           5.1194    2.3109    1.5653 C.3     1  UNL1        0.0116
      6 N           6.5894    2.3109    1.5653 N.am    1  UNL1       -0.3153
      7 C           7.3244    3.3647    2.2796 C.2     1  UNL1        0.2130
      8 O           6.6890    4.2757    2.8971 O.2     1  UNL1       -0.2758
      9 C           8.8444    3.3647    2.2796 C.3     1  UNL1        0.0237
     10 C           9.3511    4.5509    3.0836 C.3     1  UNL1       -0.0476
     11 C          10.8711    4.5509    3.0836 C.3     1  UNL1       -0.0648
     12 H           0.7094   -0.8967   -0.6087 H       1  UNL1        0.0230
     13 H           0.7094    0.8460   -0.4829 H       1  UNL1        0.0230
     14 H           0.7094   -0.1343    0.9634 H       1  UNL1        0.0230
     15 H           2.9428    0.0110   -1.0489 H       1  UNL1        0.0263
     16 H           2.9428   -0.9694    0.3974 H       1  UNL1        0.0263
     17 H           2.7361    1.0520    1.7675 H       1  UNL1        0.0266
     18 H           2.7361    2.0323    0.3211 H       1  UNL1        0.0266
     19 H           4.9694    1.1972   -0.2449 H       1  UNL1        0.0280
     20 H           4.9694    0.2169    1.2015 H       1  UNL1        0.0280
     21 H           4.7628    2.2382    2.5715 H       1  UNL1        0.0462
     22 H           4.7628    3.2186    1.1252 H       1  UNL1        0.0462
     23 H           7.0817    1.6051    1.0870 H       1  UNL1        0.1487
     24 H           9.2011    3.4373    1.2734 H       1  UNL1        0.0358
     25 H           9.2011    2.4570    2.7198 H       1  UNL1        0.0358
     26 H           8.9944    4.4783    4.0898 H       1  UNL1        0.0267
     27 H           8.9944    5.4586    2.6434 H       1  UNL1        0.0267
     28 H          11.2278    3.6432    3.5238 H       1  UNL1        0.0230
     29 H          11.2278    5.3860    3.6496 H       1  UNL1        0.0230
     30 H          11.2278    4.6236    2.0774 H       1  UNL1        0.0230
@<TRIPOS>BOND
     1     1     2    1
     2     2     3    1
     3     3     4    1
     4     4     5    1
     5     5     6    1
     6     6     7   am
     7     7     8    2
     8     7     9    1
     9     9    10    1
    10    10    11    1
    11     1    12    1
    12     1    13    1
    13     1    14    1
    14     2    15    1
    15     2    16    1
    16     3    17    1
    17     3    18    1
    18     4    19    1
    19     4    20    1
    20     5    21    1
    21     5    22    1
    22     6    23    1
    23     9    24    1
    24     9    25    1
    25    10    26    1
    26    10    27    1
    27    11    28    1
    28    11    29    1
    29    11    30    1
