@<TRIPOS>MOLECULE
*****
 61 61 0 0 0
SMALL
GASTEIGER

@<TRIPOS>ATOM
      1 C           1.0174    0.0369   -0.0913 C.3     1  UNL1       -0.0191
      2 C           2.5374    0.0369   -0.0913 C.ar    1  UNL1        0.0798
      3 C           3.2575   -0.9358   -0.8721 C.ar    1  UNL1        0.0484
      4 N           4.6503   -0.9358   -0.8721 N.ar    1  UNL1       -0.2493
      5 C           5.3853    0.0570   -0.0752 C.3     1  UNL1        0.0665
      6 C           4.3976    0.9580    0.6480 C.3     1  UNL1        0.0673
      7 O           5.1076    1.9170    1.4178 O.3     1  UNL1       -0.3757
      8 C           4.1848    2.7587    2.0935 C.3     1  UNL1        0.0711
      9 C           4.9448    3.7852    2.9175 C.3     1  UNL1        0.0711
     10 O           4.0220    4.6269    3.5931 O.3     1  UNL1       -0.3752
     11 C           4.7320    5.5860    4.3629 C.3     1  UNL1        0.0711
     12 C           3.7443    6.4869    5.0861 C.3     1  UNL1        0.0711
     13 O           4.4543    7.4459    5.8559 O.3     1  UNL1       -0.3752
     14 C           3.5315    8.2876    6.5315 C.3     1  UNL1        0.0711
     15 C           4.2915    9.3142    7.3555 C.3     1  UNL1        0.0711
     16 O           3.3688   10.1559    8.0311 O.3     1  UNL1       -0.3752
     17 C           4.0788   11.1149    8.8009 C.3     1  UNL1        0.0711
     18 C           3.0910   12.0158    9.5241 C.3     1  UNL1        0.0711
     19 O           3.8010   12.9749   10.2939 O.3     1  UNL1       -0.3752
     20 C           2.8782   13.8166   10.9696 C.3     1  UNL1        0.0711
     21 C           3.6382   14.8431   11.7936 C.3     1  UNL1        0.0711
     22 O           2.7155   15.6848   12.4692 O.3     1  UNL1       -0.3763
     23 C           3.4255   16.6438   13.2390 C.3     1  UNL1        0.0600
     24 C           2.4377   17.5448   13.9622 C.3     1  UNL1        0.0166
     25 N           3.1727   18.5376   14.7591 N.3     1  UNL1       -0.3279
     26 N           5.3230   -1.8444   -1.6014 N.ar    1  UNL1       -0.0654
     27 N           3.2338    0.9776    0.6638 N.ar    1  UNL1       -0.1348
     28 H           0.6607   -0.7498   -0.7228 H       1  UNL1        0.0294
     29 H           0.6607    0.9771   -0.4569 H       1  UNL1        0.0294
     30 H           0.6607   -0.1166    0.9057 H       1  UNL1        0.0294
     31 H           2.7415   -1.6327   -1.4315 H       1  UNL1        0.0845
     32 H           6.0005    0.6481   -0.7210 H       1  UNL1        0.0532
     33 H           6.0005   -0.4457    0.6416 H       1  UNL1        0.0532
     34 H           3.7824    0.3669    1.2939 H       1  UNL1        0.0578
     35 H           3.7824    1.4607   -0.0687 H       1  UNL1        0.0578
     36 H           3.5696    2.1676    2.7393 H       1  UNL1        0.0583
     37 H           3.5696    3.2614    1.3767 H       1  UNL1        0.0583
     38 H           5.5600    4.3763    2.2716 H       1  UNL1        0.0583
     39 H           5.5600    3.2826    3.6343 H       1  UNL1        0.0583
     40 H           5.3472    6.1770    3.7171 H       1  UNL1        0.0583
     41 H           5.3472    5.0833    5.0797 H       1  UNL1        0.0583
     42 H           3.1291    5.8958    5.7319 H       1  UNL1        0.0583
     43 H           3.1291    6.9896    4.3693 H       1  UNL1        0.0583
     44 H           2.9164    7.6965    7.1773 H       1  UNL1        0.0583
     45 H           2.9164    8.7903    5.8147 H       1  UNL1        0.0583
     46 H           4.9067    9.9053    6.7097 H       1  UNL1        0.0583
     47 H           4.9067    8.8115    8.0723 H       1  UNL1        0.0583
     48 H           4.6939   11.7060    8.1551 H       1  UNL1        0.0583
     49 H           4.6939   10.6122    9.5177 H       1  UNL1        0.0583
     50 H           2.4759   11.4248   10.1700 H       1  UNL1        0.0583
     51 H           2.4759   12.5185    8.8073 H       1  UNL1        0.0583
     52 H           2.2631   13.2255   11.6154 H       1  UNL1        0.0583
     53 H           2.2631   14.3192   10.2528 H       1  UNL1        0.0583
     54 H           4.2534   15.4342   11.1477 H       1  UNL1        0.0583
     55 H           4.2534   14.3404   12.5104 H       1  UNL1        0.0583
     56 H           4.0406   17.2349   12.5932 H       1  UNL1        0.0572
     57 H           4.0406   16.1411   13.9558 H       1  UNL1        0.0572
     58 H           1.8226   16.9537   14.6080 H       1  UNL1        0.0444
     59 H           1.8226   18.0475   13.2454 H       1  UNL1        0.0444
     60 H           3.7592   18.0584   15.4424 H       1  UNL1        0.1183
     61 H           2.5099   19.1422   15.2444 H       1  UNL1        0.1183
@<TRIPOS>BOND
     1     1     2    1
     2     2     3   ar
     3     3     4   ar
     4     4     5    1
     5     5     6    1
     6     6     7    1
     7     7     8    1
     8     8     9    1
     9     9    10    1
    10    10    11    1
    11    11    12    1
    12    12    13    1
    13    13    14    1
    14    14    15    1
    15    15    16    1
    16    16    17    1
    17    17    18    1
    18    18    19    1
    19    19    20    1
    20    20    21    1
    21    21    22    1
    22    22    23    1
    23    23    24    1
    24    24    25    1
    25     4    26   ar
    26    26    27   ar
    27     2    27   ar
    28     1    28    1
    29     1    29    1
    30     1    30    1
    31     3    31    1
    32     5    32    1
    33     5    33    1
    34     6    34    1
    35     6    35    1
    36     8    36    1
    37     8    37    1
    38     9    38    1
    39     9    39    1
    40    11    40    1
    41    11    41    1
    42    12    42    1
    43    12    43    1
    44    14    44    1
    45    14    45    1
    46    15    46    1
    47    15    47    1
    48    17    48    1
    49    17    49    1
    50    18    50    1
    51    18    51    1
    52    20    52    1
    53    20    53    1
    54    21    54    1
    55    21    55    1
    56    23    56    1
    57    23    57    1
    58    24    58    1
    59    24    59    1
    60    25    60    1
    61    25    61    1
