@<TRIPOS>MOLECULE
*****
 20 19 0 0 0
SMALL
GASTEIGER

@<TRIPOS>ATOM
      1 N           0.9602   -0.0340   -0.0852 N.3     1  UNL1       -0.3300
      2 C           2.4302   -0.0340   -0.0852 C.3     1  UNL1       -0.0069
      3 C           2.9368    1.2862    0.4723 C.3     1  UNL1       -0.0406
      4 C           4.4568    1.2862    0.4723 C.3     1  UNL1       -0.0498
      5 C           4.9635    2.6063    1.0298 C.3     1  UNL1       -0.0297
      6 C           6.4835    2.6063    1.0298 C.3     1  UNL1        0.0442
      7 O           6.9568    3.8397    1.5506 O.3     1  UNL1       -0.3950
      8 H           0.6202   -0.9199   -0.4593 H       1  UNL1        0.1182
      9 H           0.6202    0.7329   -0.6654 H       1  UNL1        0.1182
     10 H           2.7868   -0.1588   -1.0862 H       1  UNL1        0.0422
     11 H           2.7868   -0.8386    0.5234 H       1  UNL1        0.0422
     12 H           2.5802    1.4110    1.4734 H       1  UNL1        0.0277
     13 H           2.5802    2.0907   -0.1363 H       1  UNL1        0.0277
     14 H           4.8135    1.1614   -0.5287 H       1  UNL1        0.0266
     15 H           4.8135    0.4816    1.0809 H       1  UNL1        0.0266
     16 H           4.6068    2.7311    2.0309 H       1  UNL1        0.0287
     17 H           4.6068    3.4109    0.4212 H       1  UNL1        0.0287
     18 H           6.8402    2.4815    0.0287 H       1  UNL1        0.0557
     19 H           6.8402    1.8018    1.6384 H       1  UNL1        0.0557
     20 H           6.6335    4.5690    0.9989 H       1  UNL1        0.2094
@<TRIPOS>BOND
     1     1     2    1
     2     2     3    1
     3     3     4    1
     4     4     5    1
     5     5     6    1
     6     6     7    1
     7     1     8    1
     8     1     9    1
     9     2    10    1
    10     2    11    1
    11     3    12    1
    12     3    13    1
    13     4    14    1
    14     4    15    1
    15     5    16    1
    16     5    17    1
    17     6    18    1
    18     6    19    1
    19     7    20    1
