@<TRIPOS>MOLECULE
*****
 23 22 0 0 0
SMALL
GASTEIGER

@<TRIPOS>ATOM
      1 C           0.9310    0.0195   -0.0697 C.3     1  UNL1       -0.0653
      2 C           2.4510    0.0195   -0.0697 C.3     1  UNL1       -0.0559
      3 C           2.9577    1.2938   -0.7253 C.3     1  UNL1       -0.0533
      4 C           4.4777    1.2938   -0.7253 C.3     1  UNL1       -0.0531
      5 C           4.9843    2.5682   -1.3808 C.3     1  UNL1       -0.0533
      6 C           6.5043    2.5682   -1.3808 C.3     1  UNL1       -0.0559
      7 C           7.0110    3.8425   -2.0364 C.3     1  UNL1       -0.0653
      8 H           0.5743   -0.8776    0.3918 H       1  UNL1        0.0230
      9 H           0.5743    0.0684   -1.0773 H       1  UNL1        0.0230
     10 H           0.5743    0.8677    0.4764 H       1  UNL1        0.0230
     11 H           2.8077   -0.8287   -0.6159 H       1  UNL1        0.0263
     12 H           2.8077   -0.0294    0.9379 H       1  UNL1        0.0263
     13 H           2.6010    2.1420   -0.1791 H       1  UNL1        0.0265
     14 H           2.6010    1.3427   -1.7329 H       1  UNL1        0.0265
     15 H           4.8343    0.4457   -1.2714 H       1  UNL1        0.0265
     16 H           4.8343    1.2450    0.2823 H       1  UNL1        0.0265
     17 H           4.6277    3.4164   -0.8347 H       1  UNL1        0.0265
     18 H           4.6277    2.6171   -2.3885 H       1  UNL1        0.0265
     19 H           6.8610    1.7200   -1.9270 H       1  UNL1        0.0263
     20 H           6.8610    2.5193   -0.3732 H       1  UNL1        0.0263
     21 H           6.6543    3.8914   -3.0440 H       1  UNL1        0.0230
     22 H           8.0810    3.8425   -2.0364 H       1  UNL1        0.0230
     23 H           6.6543    4.6907   -1.4903 H       1  UNL1        0.0230
@<TRIPOS>BOND
     1     1     2    1
     2     2     3    1
     3     3     4    1
     4     4     5    1
     5     5     6    1
     6     6     7    1
     7     1     8    1
     8     1     9    1
     9     1    10    1
    10     2    11    1
    11     2    12    1
    12     3    13    1
    13     3    14    1
    14     4    15    1
    15     4    16    1
    16     5    17    1
    17     5    18    1
    18     6    19    1
    19     6    20    1
    20     7    21    1
    21     7    22    1
    22     7    23    1
