@<TRIPOS>MOLECULE
*****
 17 16 0 0 0
SMALL
GASTEIGER

@<TRIPOS>ATOM
      1 C           1.0530    0.0796   -0.0291 C.3     1  UNL1       -0.0653
      2 C           2.5730    0.0796   -0.0291 C.3     1  UNL1       -0.0559
      3 C           3.0797    0.4080    1.3658 C.3     1  UNL1       -0.0536
      4 C           4.5997    0.4080    1.3658 C.3     1  UNL1       -0.0559
      5 C           5.1064    0.7364    2.7608 C.3     1  UNL1       -0.0653
      6 H           0.6964   -0.1515   -1.0111 H       1  UNL1        0.0230
      7 H           0.6964    1.0456    0.2617 H       1  UNL1        0.0230
      8 H           0.6964   -0.6552    0.6621 H       1  UNL1        0.0230
      9 H           2.9297    0.8144   -0.7203 H       1  UNL1        0.0263
     10 H           2.9297   -0.8864   -0.3199 H       1  UNL1        0.0263
     11 H           2.7230   -0.3268    2.0570 H       1  UNL1        0.0265
     12 H           2.7230    1.3740    1.6566 H       1  UNL1        0.0265
     13 H           4.9564    1.1428    0.6747 H       1  UNL1        0.0263
     14 H           4.9564   -0.5580    1.0750 H       1  UNL1        0.0263
     15 H           4.7497    1.7024    3.0516 H       1  UNL1        0.0230
     16 H           6.1764    0.7364    2.7608 H       1  UNL1        0.0230
     17 H           4.7497    0.0015    3.4520 H       1  UNL1        0.0230
@<TRIPOS>BOND
     1     1     2    1
     2     2     3    1
     3     3     4    1
     4     4     5    1
     5     1     6    1
     6     1     7    1
     7     1     8    1
     8     2     9    1
     9     2    10    1
    10     3    11    1
    11     3    12    1
    12     4    13    1
    13     4    14    1
    14     5    15    1
    15     5    16    1
    16     5    17    1
