@<TRIPOS>MOLECULE
*****
 31 30 0 0 0
SMALL
GASTEIGER

@<TRIPOS>ATOM
      1 C           1.0003    0.0684    0.0730 C.1     1  UNL1       -0.1192
      2 C           2.3041    0.0684    0.0730 C.1     1  UNL1       -0.1056
      3 C           3.8241    0.0684    0.0730 C.3     1  UNL1        0.0089
      4 C           4.3308    1.4985   -0.0186 C.3     1  UNL1       -0.0422
      5 C           5.8508    1.4985   -0.0186 C.3     1  UNL1       -0.0522
      6 C           6.3575    2.9286   -0.1102 C.3     1  UNL1       -0.0530
      7 C           7.8775    2.9286   -0.1102 C.3     1  UNL1       -0.0531
      8 C           8.3841    4.3588   -0.2017 C.3     1  UNL1       -0.0531
      9 C           9.9041    4.3588   -0.2017 C.3     1  UNL1       -0.0533
     10 C          10.4108    5.7889   -0.2933 C.3     1  UNL1       -0.0559
     11 C          11.9308    5.7889   -0.2933 C.3     1  UNL1       -0.0653
     12 H           0.0063    0.0684    0.0730 H       1  UNL1        0.1228
     13 H           4.1808   -0.4908   -0.7667 H       1  UNL1        0.0397
     14 H           4.1808   -0.3792    0.9771 H       1  UNL1        0.0397
     15 H           3.9741    2.0577    0.8211 H       1  UNL1        0.0274
     16 H           3.9741    1.9461   -0.9227 H       1  UNL1        0.0274
     17 H           6.2075    0.9393   -0.8582 H       1  UNL1        0.0266
     18 H           6.2075    1.0510    0.8855 H       1  UNL1        0.0266
     19 H           6.0008    3.4878    0.7295 H       1  UNL1        0.0265
     20 H           6.0008    3.3762   -1.0142 H       1  UNL1        0.0265
     21 H           8.2341    2.3695   -0.9498 H       1  UNL1        0.0265
     22 H           8.2341    2.4811    0.7939 H       1  UNL1        0.0265
     23 H           8.0275    4.9180    0.6379 H       1  UNL1        0.0265
     24 H           8.0275    4.8063   -1.1058 H       1  UNL1        0.0265
     25 H          10.2608    3.7996   -1.0414 H       1  UNL1        0.0265
     26 H          10.2608    3.9112    0.7024 H       1  UNL1        0.0265
     27 H          10.0541    6.3481    0.5464 H       1  UNL1        0.0263
     28 H          10.0541    6.2365   -1.1974 H       1  UNL1        0.0263
     29 H          12.2875    5.3414    0.6108 H       1  UNL1        0.0230
     30 H          12.2875    6.7957   -0.3577 H       1  UNL1        0.0230
     31 H          12.2875    5.2297   -1.1329 H       1  UNL1        0.0230
@<TRIPOS>BOND
     1     1     2    3
     2     2     3    1
     3     3     4    1
     4     4     5    1
     5     5     6    1
     6     6     7    1
     7     7     8    1
     8     8     9    1
     9     9    10    1
    10    10    11    1
    11     1    12    1
    12     3    13    1
    13     3    14    1
    14     4    15    1
    15     4    16    1
    16     5    17    1
    17     5    18    1
    18     6    19    1
    19     6    20    1
    20     7    21    1
    21     7    22    1
    22     8    23    1
    23     8    24    1
    24     9    25    1
    25     9    26    1
    26    10    27    1
    27    10    28    1
    28    11    29    1
    29    11    30    1
    30    11    31    1
