@<TRIPOS>MOLECULE
*****
 45 45 0 0 0
SMALL
GASTEIGER

@<TRIPOS>ATOM
      1 C           1.0273    0.0924    0.0269 C.3     1  UNL1       -0.0653
      2 C           2.5473    0.0924    0.0269 C.3     1  UNL1       -0.0559
      3 C           3.0540    0.4324   -1.3652 C.3     1  UNL1       -0.0533
      4 C           4.5740    0.4324   -1.3652 C.3     1  UNL1       -0.0531
      5 C           5.0806    0.7724   -2.7574 C.3     1  UNL1       -0.0530
      6 C           6.6006    0.7724   -2.7574 C.3     1  UNL1       -0.0526
      7 C           7.1073    1.1125   -4.1495 C.3     1  UNL1       -0.0448
      8 C           8.6273    1.1125   -4.1495 C.3     1  UNL1        0.0242
      9 C           9.1339    1.4525   -5.5417 C.2     1  UNL1        0.2156
     10 O           8.3081    1.6817   -6.4801 O.2     1  UNL1       -0.2756
     11 N          10.5792    1.5162   -5.8026 N.am    1  UNL1       -0.2990
     12 C          11.0692    1.8451   -7.1490 C.3     1  UNL1        0.0275
     13 C          12.5892    1.8451   -7.1490 C.3     1  UNL1        0.0145
     14 N          13.0792    2.1739   -8.4953 N.3     1  UNL1       -0.3024
     15 C          12.5892    3.5043   -8.8837 C.3     1  UNL1       -0.0126
     16 C          14.5492    2.1739   -8.4953 C.3     1  UNL1        0.0145
     17 C          11.5344    1.2511   -4.7172 C.3     1  UNL1        0.0275
     18 H           0.6706   -0.1470    1.0069 H       1  UNL1        0.0230
     19 H           0.6706   -0.6367   -0.6704 H       1  UNL1        0.0230
     20 H           0.6706    1.0607   -0.2558 H       1  UNL1        0.0230
     21 H           2.9040   -0.8760    0.3096 H       1  UNL1        0.0263
     22 H           2.9040    0.8214    0.7242 H       1  UNL1        0.0263
     23 H           2.6973    1.4008   -1.6479 H       1  UNL1        0.0265
     24 H           2.6973   -0.2966   -2.0625 H       1  UNL1        0.0265
     25 H           4.9306   -0.5360   -1.0825 H       1  UNL1        0.0265
     26 H           4.9306    1.1614   -0.6679 H       1  UNL1        0.0265
     27 H           4.7239    1.7408   -3.0401 H       1  UNL1        0.0265
     28 H           4.7239    0.0434   -3.4547 H       1  UNL1        0.0265
     29 H           6.9573   -0.1960   -2.4747 H       1  UNL1        0.0265
     30 H           6.9573    1.5014   -2.0601 H       1  UNL1        0.0265
     31 H           6.7506    2.0808   -4.4322 H       1  UNL1        0.0270
     32 H           6.7506    0.3834   -4.8468 H       1  UNL1        0.0270
     33 H           8.9839    0.1441   -3.8668 H       1  UNL1        0.0358
     34 H           8.9839    1.8415   -3.4522 H       1  UNL1        0.0358
     35 H          10.7125    2.8135   -7.4317 H       1  UNL1        0.0477
     36 H          10.7125    1.1161   -7.8463 H       1  UNL1        0.0477
     37 H          12.9458    0.8767   -6.8663 H       1  UNL1        0.0442
     38 H          12.9458    2.5741   -6.4517 H       1  UNL1        0.0442
     39 H          11.5192    3.5043   -8.8837 H       1  UNL1        0.0391
     40 H          12.9458    3.7437   -9.8637 H       1  UNL1        0.0391
     41 H          12.9458    4.2333   -8.1864 H       1  UNL1        0.0391
     42 H          15.1039    3.0871   -8.5521 H       1  UNL1        0.0442
     43 H          15.3474    1.6881   -9.0167 H       1  UNL1        0.0442
     44 H          11.5492    1.9533   -3.9100 H       1  UNL1        0.0477
     45 H          11.5541    0.3887   -4.0842 H       1  UNL1        0.0477
@<TRIPOS>BOND
     1     1     2    1
     2     2     3    1
     3     3     4    1
     4     4     5    1
     5     5     6    1
     6     6     7    1
     7     7     8    1
     8     8     9    1
     9     9    10    2
    10     9    11   am
    11    11    12    1
    12    12    13    1
    13    13    14    1
    14    14    15    1
    15    14    16    1
    16    16    17    1
    17    11    17    1
    18     1    18    1
    19     1    19    1
    20     1    20    1
    21     2    21    1
    22     2    22    1
    23     3    23    1
    24     3    24    1
    25     4    25    1
    26     4    26    1
    27     5    27    1
    28     5    28    1
    29     6    29    1
    30     6    30    1
    31     7    31    1
    32     7    32    1
    33     8    33    1
    34     8    34    1
    35    12    35    1
    36    12    36    1
    37    13    37    1
    38    13    38    1
    39    15    39    1
    40    15    40    1
    41    15    41    1
    42    16    42    1
    43    16    43    1
    44    17    44    1
    45    17    45    1
