@<TRIPOS>MOLECULE
*****
 48 48 0 0 0
SMALL
GASTEIGER

@<TRIPOS>ATOM
      1 N           0.9898   -0.0991    0.0084 N.3     1  UNL1       -0.3283
      2 C           2.4598   -0.0991    0.0084 C.3     1  UNL1        0.0128
      3 C           2.9665    0.9111    1.0249 C.3     1  UNL1        0.0554
      4 N           4.4365    0.9111    1.0249 N.ar    1  UNL1       -0.2502
      5 C           5.1329    1.7613    1.8805 C.ar    1  UNL1        0.0510
      6 C           6.5731    1.7613    1.8805 C.ar    1  UNL1        0.1083
      7 C           7.3331    0.8334    0.9468 C.3     1  UNL1        0.0930
      8 O           6.4103    0.0726    0.1812 O.3     1  UNL1       -0.3713
      9 C           7.1203   -0.7943   -0.6910 C.3     1  UNL1        0.0715
     10 C           6.1326   -1.6087   -1.5105 C.3     1  UNL1        0.0711
     11 O           6.8426   -2.4755   -2.3828 O.3     1  UNL1       -0.3752
     12 C           5.9198   -3.2363   -3.1483 C.3     1  UNL1        0.0711
     13 C           6.6798   -4.1643   -4.0820 C.3     1  UNL1        0.0711
     14 O           5.7570   -4.9251   -4.8475 O.3     1  UNL1       -0.3752
     15 C           6.4670   -5.7919   -5.7198 C.3     1  UNL1        0.0711
     16 C           5.4793   -6.6063   -6.5393 C.3     1  UNL1        0.0711
     17 O           6.1893   -7.4732   -7.4115 O.3     1  UNL1       -0.3752
     18 C           5.2665   -8.2340   -8.1771 C.3     1  UNL1        0.0708
     19 C           6.0265   -9.1619   -9.1108 C.3     1  UNL1        0.0676
     20 O           5.1038   -9.9228   -9.8763 O.3     1  UNL1       -0.3927
     21 N           7.2695    2.6116    2.7360 N.ar    1  UNL1       -0.1322
     22 N           5.1092    0.0897    0.1984 N.ar    1  UNL1       -0.0653
     23 H           0.6498   -0.7770   -0.6737 H       1  UNL1        0.1183
     24 H           0.6498    0.8305   -0.2376 H       1  UNL1        0.1183
     25 H           2.8165    0.1650   -0.9652 H       1  UNL1        0.0440
     26 H           2.8165   -1.0744    0.2665 H       1  UNL1        0.0440
     27 H           2.6098    0.6469    1.9985 H       1  UNL1        0.0522
     28 H           2.6098    1.8863    0.7668 H       1  UNL1        0.0522
     29 H           4.6169    2.3914    2.5144 H       1  UNL1        0.0846
     30 H           7.9482    0.1738    1.5224 H       1  UNL1        0.0626
     31 H           7.9482    1.4131    0.2907 H       1  UNL1        0.0626
     32 H           7.7355   -1.4539   -0.1154 H       1  UNL1        0.0583
     33 H           7.7355   -0.2145   -1.3471 H       1  UNL1        0.0583
     34 H           5.5174   -0.9490   -2.0861 H       1  UNL1        0.0583
     35 H           5.5174   -2.1884   -0.8544 H       1  UNL1        0.0583
     36 H           5.3047   -2.5767   -3.7239 H       1  UNL1        0.0583
     37 H           5.3046   -3.8161   -2.4923 H       1  UNL1        0.0583
     38 H           7.2950   -4.8239   -3.5063 H       1  UNL1        0.0583
     39 H           7.2950   -3.5845   -4.7380 H       1  UNL1        0.0583
     40 H           7.0822   -6.4516   -5.1442 H       1  UNL1        0.0583
     41 H           7.0822   -5.2122   -6.3759 H       1  UNL1        0.0583
     42 H           4.8641   -5.9467   -7.1149 H       1  UNL1        0.0583
     43 H           4.8641   -7.1861   -5.8832 H       1  UNL1        0.0583
     44 H           4.6514   -7.5744   -8.7527 H       1  UNL1        0.0583
     45 H           4.6514   -8.8137   -7.5210 H       1  UNL1        0.0583
     46 H           6.6417   -9.8216   -8.5351 H       1  UNL1        0.0580
     47 H           6.6417   -8.5822   -9.7668 H       1  UNL1        0.0580
     48 H           4.5461  -10.4483   -9.2816 H       1  UNL1        0.2095
@<TRIPOS>BOND
     1     1     2    1
     2     2     3    1
     3     3     4    1
     4     4     5   ar
     5     5     6   ar
     6     6     7    1
     7     7     8    1
     8     8     9    1
     9     9    10    1
    10    10    11    1
    11    11    12    1
    12    12    13    1
    13    13    14    1
    14    14    15    1
    15    15    16    1
    16    16    17    1
    17    17    18    1
    18    18    19    1
    19    19    20    1
    20     6    21   ar
    21    21    22   ar
    22     4    22   ar
    23     1    23    1
    24     1    24    1
    25     2    25    1
    26     2    26    1
    27     3    27    1
    28     3    28    1
    29     5    29    1
    30     7    30    1
    31     7    31    1
    32     9    32    1
    33     9    33    1
    34    10    34    1
    35    10    35    1
    36    12    36    1
    37    12    37    1
    38    13    38    1
    39    13    39    1
    40    15    40    1
    41    15    41    1
    42    16    42    1
    43    16    43    1
    44    18    44    1
    45    18    45    1
    46    19    46    1
    47    19    47    1
    48    20    48    1
