@<TRIPOS>MOLECULE
*****
 46 45 0 0 0
SMALL
GASTEIGER

@<TRIPOS>ATOM
      1 C           0.9869   -0.0588    0.0798 C.3     1  UNL1        0.0032
      2 N           2.4569   -0.0588    0.0798 N.am    1  UNL1       -0.3023
      3 C           3.1919    0.8503    0.9710 C.3     1  UNL1        0.0378
      4 C           2.2042    1.6753    1.7798 C.3     1  UNL1        0.0635
      5 O           2.9142    2.5535    2.6407 O.3     1  UNL1       -0.3760
      6 C           1.9914    3.3242    3.3963 C.3     1  UNL1        0.0711
      7 C           2.7514    4.2643    4.3178 C.3     1  UNL1        0.0711
      8 O           1.8286    5.0350    5.0733 O.3     1  UNL1       -0.3752
      9 C           2.5386    5.9132    5.9342 C.3     1  UNL1        0.0711
     10 C           1.5509    6.7382    6.7430 C.3     1  UNL1        0.0711
     11 O           2.2609    7.6163    7.6039 O.3     1  UNL1       -0.3763
     12 C           1.3381    8.3871    8.3594 C.3     1  UNL1        0.0600
     13 C           2.0981    9.3271    9.2809 C.3     1  UNL1        0.0166
     14 N           1.1429   10.1250   10.0631 N.3     1  UNL1       -0.3279
     15 C           3.1919   -0.9679   -0.8114 C.2     1  UNL1        0.2166
     16 O           2.5565   -1.7538   -1.5818 O.2     1  UNL1       -0.2756
     17 C           4.7119   -0.9679   -0.8114 C.3     1  UNL1        0.0364
     18 C           5.2186   -1.9912   -1.8146 C.3     1  UNL1        0.0014
     19 N           6.6886   -1.9912   -1.8146 N.3     1  UNL1       -0.3295
     20 H           0.6303    0.6616    0.7861 H       1  UNL1        0.0428
     21 H           0.6303   -1.0306    0.3506 H       1  UNL1        0.0428
     22 H           0.6303    0.1926   -0.8971 H       1  UNL1        0.0428
     23 H           3.8071    1.5024    0.3868 H       1  UNL1        0.0487
     24 H           3.8071    0.2792    1.6346 H       1  UNL1        0.0487
     25 H           1.5890    1.0233    2.3640 H       1  UNL1        0.0575
     26 H           1.5890    2.2464    1.1163 H       1  UNL1        0.0575
     27 H           1.3763    2.6722    3.9804 H       1  UNL1        0.0583
     28 H           1.3763    3.8954    2.7327 H       1  UNL1        0.0583
     29 H           3.3666    4.9163    3.7336 H       1  UNL1        0.0583
     30 H           3.3666    3.6931    4.9813 H       1  UNL1        0.0583
     31 H           3.1538    6.5652    5.3500 H       1  UNL1        0.0583
     32 H           3.1538    5.3420    6.5978 H       1  UNL1        0.0583
     33 H           0.9357    6.0861    7.3272 H       1  UNL1        0.0583
     34 H           0.9357    7.3093    6.0794 H       1  UNL1        0.0583
     35 H           0.7230    7.7350    8.9436 H       1  UNL1        0.0572
     36 H           0.7230    8.9582    7.6959 H       1  UNL1        0.0572
     37 H           2.7133    9.9792    8.6967 H       1  UNL1        0.0444
     38 H           2.7133    8.7560    9.9445 H       1  UNL1        0.0444
     39 H           0.5565   10.6694    9.4305 H       1  UNL1        0.1183
     40 H           1.6529   10.7558   10.6815 H       1  UNL1        0.1183
     41 H           5.0686   -1.2193    0.1656 H       1  UNL1        0.0371
     42 H           5.0686    0.0039   -1.0821 H       1  UNL1        0.0371
     43 H           4.8619   -1.7398   -2.7915 H       1  UNL1        0.0426
     44 H           4.8619   -2.9630   -1.5438 H       1  UNL1        0.0426
     45 H           7.0286   -1.0648   -2.0727 H       1  UNL1        0.1182
     46 H           7.0286   -2.6779   -2.4878 H       1  UNL1        0.1182
@<TRIPOS>BOND
     1     1     2    1
     2     2     3    1
     3     3     4    1
     4     4     5    1
     5     5     6    1
     6     6     7    1
     7     7     8    1
     8     8     9    1
     9     9    10    1
    10    10    11    1
    11    11    12    1
    12    12    13    1
    13    13    14    1
    14     2    15   am
    15    15    16    2
    16    15    17    1
    17    17    18    1
    18    18    19    1
    19     1    20    1
    20     1    21    1
    21     1    22    1
    22     3    23    1
    23     3    24    1
    24     4    25    1
    25     4    26    1
    26     6    27    1
    27     6    28    1
    28     7    29    1
    29     7    30    1
    30     9    31    1
    31     9    32    1
    32    10    33    1
    33    10    34    1
    34    12    35    1
    35    12    36    1
    36    13    37    1
    37    13    38    1
    38    14    39    1
    39    14    40    1
    40    17    41    1
    41    17    42    1
    42    18    43    1
    43    18    44    1
    44    19    45    1
    45    19    46    1
