@<TRIPOS>MOLECULE
*****
 28 28 0 0 0
SMALL
GASTEIGER

@<TRIPOS>ATOM
      1 C           0.9715    0.0717    0.0636 C.3     1  UNL1       -0.0416
      2 C           2.4915    0.0717    0.0636 C.3     1  UNL1        0.0449
      3 O           2.9648   -0.1522    1.3835 O.3     1  UNL1       -0.3782
      4 C           4.3848   -0.1522    1.3835 C.3     1  UNL1        0.0672
      5 C           4.8915   -0.3918    2.7964 C.3     1  UNL1        0.0665
      6 N           6.3615   -0.3918    2.7964 N.ar    1  UNL1       -0.2492
      7 C           7.0579   -0.5935    3.9857 C.ar    1  UNL1        0.0503
      8 C           8.4981   -0.5935    3.9857 C.ar    1  UNL1        0.0998
      9 C           9.2581   -0.3734    2.6878 C.3     1  UNL1        0.0570
     10 N           8.3028   -0.1866    1.5863 N.am    1  UNL1       -0.3122
     11 C           8.7928    0.0452    0.2198 C.2     1  UNL1        0.2003
     12 O           7.9670    0.2068   -0.7325 O.2     1  UNL1       -0.2795
     13 N           9.1945   -0.7953    5.1749 N.ar    1  UNL1       -0.1329
     14 N           7.0342   -0.1970    1.6476 N.ar    1  UNL1       -0.0653
     15 H           0.6148    0.2404   -0.9310 H       1  UNL1        0.0252
     16 H           0.6148    0.8487    0.7070 H       1  UNL1        0.0252
     17 H           0.6148   -0.8740    0.4148 H       1  UNL1        0.0252
     18 H           2.8482    1.0174   -0.2876 H       1  UNL1        0.0557
     19 H           2.8482   -0.7053   -0.5798 H       1  UNL1        0.0557
     20 H           4.7415    0.7935    1.0323 H       1  UNL1        0.0578
     21 H           4.7415   -0.9292    0.7401 H       1  UNL1        0.0578
     22 H           4.5348   -1.3375    3.1476 H       1  UNL1        0.0532
     23 H           4.5348    0.3852    3.4398 H       1  UNL1        0.0532
     24 H           6.5419   -0.7430    4.8668 H       1  UNL1        0.0846
     25 H           9.8732   -1.2253    2.4859 H       1  UNL1        0.0528
     26 H           9.8733    0.4974    2.7781 H       1  UNL1        0.0528
     27 H           7.3349   -0.2166    1.7636 H       1  UNL1        0.1488
     28 H           9.8075    0.0767    0.0339 H       1  UNL1        0.1251
@<TRIPOS>BOND
     1     1     2    1
     2     2     3    1
     3     3     4    1
     4     4     5    1
     5     5     6    1
     6     6     7   ar
     7     7     8   ar
     8     8     9    1
     9     9    10    1
    10    10    11   am
    11    11    12    2
    12     8    13   ar
    13    13    14   ar
    14     6    14   ar
    15     1    15    1
    16     1    16    1
    17     1    17    1
    18     2    18    1
    19     2    19    1
    20     4    20    1
    21     4    21    1
    22     5    22    1
    23     5    23    1
    24     7    24    1
    25     9    25    1
    26     9    26    1
    27    10    27    1
    28    11    28    1
