@<TRIPOS>MOLECULE
*****
 26 26 0 0 0
SMALL
GASTEIGER

@<TRIPOS>ATOM
      1 C           1.0591    0.0590   -0.0551 C.3     1  UNL1       -0.0397
      2 C           2.5791    0.0590   -0.0551 C.ar    1  UNL1       -0.0502
      3 C           3.2992    1.3033   -0.1403 C.ar    1  UNL1       -0.0554
      4 C           4.7394    1.3033   -0.1403 C.ar    1  UNL1       -0.0197
      5 C           5.4595    2.5476   -0.2254 C.ar    1  UNL1        0.1205
      6 O           4.7495    3.7745   -0.3094 O.3     1  UNL1       -0.4919
      7 C           3.3295    3.7745   -0.3094 C.3     1  UNL1        0.0917
      8 C           2.8228    5.2042   -0.4073 C.3     1  UNL1        0.0046
      9 C           1.3028    5.2042   -0.4073 C.3     1  UNL1        0.0473
     10 O           0.8295    6.5399   -0.4987 O.3     1  UNL1       -0.3949
     11 C           6.8997    2.5476   -0.2254 C.ar    1  UNL1       -0.0197
     12 C           3.2992   -1.1854    0.0301 C.ar    1  UNL1       -0.0554
     13 H           0.7024    1.0654   -0.1240 H       1  UNL1        0.0278
     14 H           0.7024   -0.3846    0.8510 H       1  UNL1        0.0278
     15 H           0.7024   -0.5039   -0.8922 H       1  UNL1        0.0278
     16 H           2.7832    2.1950   -0.2013 H       1  UNL1        0.0621
     17 H           5.2554    0.4117   -0.0792 H       1  UNL1        0.0654
     18 H           2.9728    3.3310    0.5966 H       1  UNL1        0.0697
     19 H           2.9728    3.2116   -1.1466 H       1  UNL1        0.0697
     20 H           3.1795    5.6478   -1.3134 H       1  UNL1        0.0320
     21 H           3.1795    5.7671    0.4299 H       1  UNL1        0.0320
     22 H           0.9461    4.7607    0.4988 H       1  UNL1        0.0558
     23 H           0.9461    4.6414   -1.2445 H       1  UNL1        0.0558
     24 H           1.1528    7.0502    0.2602 H       1  UNL1        0.2094
     25 H           7.8493    2.9508   -0.2530 H       1  UNL1        0.0654
     26 H           3.1743   -2.2074    0.1001 H       1  UNL1        0.0621
@<TRIPOS>BOND
     1     1     2    1
     2     2     3   ar
     3     3     4   ar
     4     4     5   ar
     5     5     6    1
     6     6     7    1
     7     7     8    1
     8     8     9    1
     9     9    10    1
    10     5    11   ar
    11    11    12   ar
    12     2    12   ar
    13     1    13    1
    14     1    14    1
    15     1    15    1
    16     3    16    1
    17     4    17    1
    18     7    18    1
    19     7    19    1
    20     8    20    1
    21     8    21    1
    22     9    22    1
    23     9    23    1
    24    10    24    1
    25    11    25    1
    26    12    26    1
