@<TRIPOS>MOLECULE
*****
 32 33 0 0 0
SMALL
GASTEIGER

@<TRIPOS>ATOM
      1 C           0.9854   -0.0572   -0.0807 C.3     1  UNL1       -0.0613
      2 C           2.5054   -0.0572   -0.0807 C.3     1  UNL1       -0.0305
      3 C           3.0121   -0.3456   -1.4845 C.ar    1  UNL1       -0.0475
      4 C           4.4280   -0.3986   -1.7423 C.ar    1  UNL1       -0.0568
      5 C           4.9081   -0.6718   -3.0723 C.ar    1  UNL1       -0.0404
      6 C           6.3240   -0.7248   -3.3301 C.ar    1  UNL1        0.0298
      7 N           7.2793   -0.4999   -2.2357 N.pl3   1  UNL1       -0.3275
      8 C           6.7893   -0.2210   -0.8781 C.3     1  UNL1        0.0248
      9 C           7.9715   -0.0287    0.0577 C.3     1  UNL1        0.0117
     10 N           7.4815    0.2502    1.4153 N.3     1  UNL1       -0.3130
     11 C           8.6249    0.4362    2.3203 C.3     1  UNL1        0.0117
     12 C           8.7245   -0.5540   -2.4988 C.3     1  UNL1        0.0248
     13 C           6.8041   -0.9981   -4.6602 C.ar    1  UNL1       -0.0404
     14 C           2.0762   -0.5659   -2.5568 C.ar    1  UNL1       -0.0568
     15 H           0.6287    0.1459    0.9074 H       1  UNL1        0.0233
     16 H           0.6287   -1.0144   -0.3990 H       1  UNL1        0.0233
     17 H           0.6287    0.6971   -0.7507 H       1  UNL1        0.0233
     18 H           2.8621   -0.8114    0.5892 H       1  UNL1        0.0311
     19 H           2.8621    0.9001    0.2375 H       1  UNL1        0.0311
     20 H           5.0986   -0.2407   -0.9739 H       1  UNL1        0.0621
     21 H           4.2374   -0.8297   -3.8407 H       1  UNL1        0.0636
     22 H           6.1948   -1.0429   -0.5376 H       1  UNL1        0.0476
     23 H           6.1948    0.6686   -0.8892 H       1  UNL1        0.0476
     24 H           8.5659    0.7932   -0.2828 H       1  UNL1        0.0439
     25 H           8.5660   -0.9183    0.0689 H       1  UNL1        0.0439
     26 H           6.9148   -0.5333    1.7399 H       1  UNL1        0.1220
     27 H           8.8854   -0.3069    3.0448 H       1  UNL1        0.0439
     28 H           8.9998    1.1818    2.9899 H       1  UNL1        0.0439
     29 H           9.1242   -1.5046   -2.7844 H       1  UNL1        0.0476
     30 H           9.2549   -0.0063   -3.2495 H       1  UNL1        0.0476
     31 H           7.5016   -1.1512   -5.4052 H       1  UNL1        0.0636
     32 H           1.0687   -0.6109   -2.7759 H       1  UNL1        0.0621
@<TRIPOS>BOND
     1     1     2    1
     2     2     3    1
     3     3     4   ar
     4     4     5   ar
     5     5     6   ar
     6     6     7    1
     7     7     8    1
     8     8     9    1
     9     9    10    1
    10    10    11    1
    11    11    12    1
    12     7    12    1
    13     6    13   ar
    14    13    14   ar
    15     3    14   ar
    16     1    15    1
    17     1    16    1
    18     1    17    1
    19     2    18    1
    20     2    19    1
    21     4    20    1
    22     5    21    1
    23     8    22    1
    24     8    23    1
    25     9    24    1
    26     9    25    1
    27    10    26    1
    28    11    27    1
    29    11    28    1
    30    12    29    1
    31    12    30    1
    32    13    31    1
    33    14    32    1
