@<TRIPOS>MOLECULE
*****
 39 38 0 0 0
SMALL
GASTEIGER

@<TRIPOS>ATOM
      1 C           0.9757    0.0431   -0.0869 C.3     1  UNL1       -0.0632
      2 C           2.4957    0.0431   -0.0869 C.3     1  UNL1       -0.0323
      3 C           3.0023    1.1712   -0.9707 C.3     1  UNL1        0.0474
      4 O           4.4223    1.1712   -0.9707 O.3     1  UNL1       -0.3797
      5 C           4.8956    2.2251   -1.7964 C.3     1  UNL1        0.0497
      6 C           6.4156    2.2251   -1.7964 C.3     1  UNL1       -0.0059
      7 C           6.9223    3.3531   -2.6802 C.3     1  UNL1        0.0498
      8 O           8.3423    3.3531   -2.6802 O.3     1  UNL1       -0.3792
      9 C           8.8156    4.4070   -3.5059 C.3     1  UNL1        0.0559
     10 C          10.3356    4.4070   -3.5059 C.3     1  UNL1        0.0473
     11 C          10.8423    5.5351   -4.3897 C.2     1  UNL1        0.2153
     12 O          10.0164    6.2955   -4.9854 O.2     1  UNL1       -0.2757
     13 N          12.2875    5.7465   -4.5553 N.am    1  UNL1       -0.3131
     14 C          12.7775    6.8375   -5.4101 C.3     1  UNL1        0.0348
     15 C          14.2975    6.8375   -5.4101 C.3     1  UNL1        0.0597
     16 O          14.7709    7.8914   -6.2358 O.3     1  UNL1       -0.3935
     17 H           0.6190   -0.7510    0.5353 H       1  UNL1        0.0230
     18 H           0.6190   -0.0986   -1.0857 H       1  UNL1        0.0230
     19 H           0.6190    0.9790    0.2898 H       1  UNL1        0.0230
     20 H           2.8523   -0.8927   -0.4635 H       1  UNL1        0.0285
     21 H           2.8523    0.1849    0.9119 H       1  UNL1        0.0285
     22 H           2.6456    2.1071   -0.5941 H       1  UNL1        0.0560
     23 H           2.6456    1.0294   -1.9695 H       1  UNL1        0.0560
     24 H           4.5390    3.1609   -1.4197 H       1  UNL1        0.0560
     25 H           4.5390    2.0833   -2.7952 H       1  UNL1        0.0560
     26 H           6.7723    1.2892   -2.1730 H       1  UNL1        0.0310
     27 H           6.7723    2.3668   -0.7976 H       1  UNL1        0.0310
     28 H           6.5656    4.2890   -2.3036 H       1  UNL1        0.0560
     29 H           6.5656    3.2114   -3.6790 H       1  UNL1        0.0560
     30 H           8.4590    5.3429   -3.1292 H       1  UNL1        0.0564
     31 H           8.4590    4.2652   -4.5047 H       1  UNL1        0.0564
     32 H          10.6923    3.4711   -3.8825 H       1  UNL1        0.0381
     33 H          10.6923    4.5488   -2.5071 H       1  UNL1        0.0381
     34 H          12.9273    5.1575   -4.0938 H       1  UNL1        0.1488
     35 H          12.4209    7.7734   -5.0335 H       1  UNL1        0.0484
     36 H          12.4209    6.6957   -6.4089 H       1  UNL1        0.0484
     37 H          14.6542    5.9016   -5.7867 H       1  UNL1        0.0573
     38 H          14.6542    6.9792   -4.4113 H       1  UNL1        0.0573
     39 H          14.4475    7.7628   -7.1412 H       1  UNL1        0.2095
@<TRIPOS>BOND
     1     1     2    1
     2     2     3    1
     3     3     4    1
     4     4     5    1
     5     5     6    1
     6     6     7    1
     7     7     8    1
     8     8     9    1
     9     9    10    1
    10    10    11    1
    11    11    12    2
    12    11    13   am
    13    13    14    1
    14    14    15    1
    15    15    16    1
    16     1    17    1
    17     1    18    1
    18     1    19    1
    19     2    20    1
    20     2    21    1
    21     3    22    1
    22     3    23    1
    23     5    24    1
    24     5    25    1
    25     6    26    1
    26     6    27    1
    27     7    28    1
    28     7    29    1
    29     9    30    1
    30     9    31    1
    31    10    32    1
    32    10    33    1
    33    13    34    1
    34    14    35    1
    35    14    36    1
    36    15    37    1
    37    15    38    1
    38    16    39    1
