@<TRIPOS>MOLECULE
*****
 31 31 0 0 0
SMALL
GASTEIGER

@<TRIPOS>ATOM
      1 C           0.9839    0.0637   -0.0754 C.3     1  UNL1       -0.0653
      2 C           2.5039    0.0637   -0.0754 C.3     1  UNL1       -0.0559
      3 C           3.0105    0.0409    1.3575 C.3     1  UNL1       -0.0521
      4 C           4.5305    0.0409    1.3575 C.3     1  UNL1       -0.0402
      5 C           5.0372    0.0181    2.7904 C.3     1  UNL1       -0.0010
      6 N           6.5072    0.0181    2.7904 N.3     1  UNL1       -0.2999
      7 C           6.9972   -0.0039    4.1762 C.3     1  UNL1        0.0115
      8 C           8.5172   -0.0039    4.1762 C.3     1  UNL1        0.0087
      9 N           9.0072   -0.0259    5.5619 N.3     1  UNL1       -0.3136
     10 C          10.4772   -0.0259    5.5619 C.3     1  UNL1        0.0087
     11 C           6.9972    1.2292    2.1166 C.3     1  UNL1        0.0115
     12 H           0.6272    0.0797   -1.0841 H       1  UNL1        0.0230
     13 H           0.6272    0.9292    0.4428 H       1  UNL1        0.0230
     14 H           0.6272   -0.8179    0.4151 H       1  UNL1        0.0230
     15 H           2.8605    0.9453   -0.5658 H       1  UNL1        0.0263
     16 H           2.8605   -0.8018   -0.5936 H       1  UNL1        0.0263
     17 H           2.6539   -0.8406    1.8480 H       1  UNL1        0.0266
     18 H           2.6539    0.9064    1.8757 H       1  UNL1        0.0266
     19 H           4.8872    0.9225    0.8671 H       1  UNL1        0.0278
     20 H           4.8872   -0.8246    0.8393 H       1  UNL1        0.0278
     21 H           4.6805   -0.8634    3.2809 H       1  UNL1        0.0426
     22 H           4.6805    0.8837    3.3086 H       1  UNL1        0.0426
     23 H           6.6405   -0.8855    4.6666 H       1  UNL1        0.0439
     24 H           6.6405    0.8616    4.6944 H       1  UNL1        0.0439
     25 H           8.8739    0.8777    3.6857 H       1  UNL1        0.0437
     26 H           8.8739   -0.8694    3.6579 H       1  UNL1        0.0437
     27 H           8.6672   -0.8663    6.0294 H       1  UNL1        0.1220
     28 H          11.0448   -0.9303    5.4920 H       1  UNL1        0.0437
     29 H          11.3023    0.3994    6.0941 H       1  UNL1        0.0437
     30 H           7.2689    1.1470    1.0849 H       1  UNL1        0.0439
     31 H           6.5007    2.1662    1.9733 H       1  UNL1        0.0439
@<TRIPOS>BOND
     1     1     2    1
     2     2     3    1
     3     3     4    1
     4     4     5    1
     5     5     6    1
     6     6     7    1
     7     7     8    1
     8     8     9    1
     9     9    10    1
    10    10    11    1
    11     6    11    1
    12     1    12    1
    13     1    13    1
    14     1    14    1
    15     2    15    1
    16     2    16    1
    17     3    17    1
    18     3    18    1
    19     4    19    1
    20     4    20    1
    21     5    21    1
    22     5    22    1
    23     7    23    1
    24     7    24    1
    25     8    25    1
    26     8    26    1
    27     9    27    1
    28    10    28    1
    29    10    29    1
    30    11    30    1
    31    11    31    1
