@<TRIPOS>MOLECULE
*****
 19 19 0 0 0
SMALL
GASTEIGER

@<TRIPOS>ATOM
      1 C           0.9589    0.0802    0.0433 C.3     1  UNL1        0.0369
      2 O           2.3789    0.0802    0.0433 O.3     1  UNL1       -0.3784
      3 C           2.8522    1.0635   -0.8652 C.3     1  UNL1        0.0723
      4 C           4.3722    1.0635   -0.8652 C.ar    1  UNL1       -0.0219
      5 C           5.0923    1.9795   -1.7117 C.ar    1  UNL1       -0.0564
      6 C           6.5325    1.9795   -1.7117 C.ar    1  UNL1       -0.0614
      7 C           7.2526    2.8956   -2.5581 C.ar    1  UNL1       -0.0617
      8 C           8.6928    2.8956   -2.5581 C.ar    1  UNL1       -0.0614
      9 C           5.0923    0.1474   -0.0188 C.ar    1  UNL1       -0.0564
     10 H           0.6022   -0.6607    0.7280 H       1  UNL1        0.0524
     11 H           0.6022   -0.1423   -0.9406 H       1  UNL1        0.0524
     12 H           0.6022    1.0436    0.3427 H       1  UNL1        0.0524
     13 H           2.4955    2.0268   -0.5659 H       1  UNL1        0.0610
     14 H           2.4955    0.8410   -1.8492 H       1  UNL1        0.0610
     15 H           4.5763    2.6360   -2.3182 H       1  UNL1        0.0621
     16 H           7.0485    1.3231   -1.1051 H       1  UNL1        0.0618
     17 H           6.7366    3.5520   -3.1647 H       1  UNL1        0.0618
     18 H           9.6424    3.1924   -2.8324 H       1  UNL1        0.0618
     19 H           4.9674   -0.6050    0.6764 H       1  UNL1        0.0621
@<TRIPOS>BOND
     1     1     2    1
     2     2     3    1
     3     3     4    1
     4     4     5   ar
     5     5     6   ar
     6     6     7   ar
     7     7     8   ar
     8     8     9   ar
     9     4     9   ar
    10     1    10    1
    11     1    11    1
    12     1    12    1
    13     3    13    1
    14     3    14    1
    15     5    15    1
    16     6    16    1
    17     7    17    1
    18     8    18    1
    19     9    19    1
