@<TRIPOS>MOLECULE
*****
 9 8 0 0 0
SMALL
GASTEIGER

@<TRIPOS>ATOM
      1 C           0.9473   -0.0695   -0.0489 C.3     1  UNL1        0.0119
      2 C           2.4673   -0.0695   -0.0489 C.2     1  UNL1        0.2074
      3 N           3.2023   -0.8418   -1.0610 N.am    1  UNL1       -0.3295
      4 O           3.1027    0.5982    0.8261 O.2     1  UNL1       -0.2763
      5 H           0.5906   -0.6815   -0.8509 H       1  UNL1        0.0322
      6 H           0.5906    0.9310   -0.1779 H       1  UNL1        0.0322
      7 H           0.5906   -0.4581    0.8821 H       1  UNL1        0.0322
      8 H           2.7100   -1.3589   -1.7388 H       1  UNL1        0.1449
      9 H           4.1868   -0.8418   -1.0610 H       1  UNL1        0.1449
@<TRIPOS>BOND
     1     1     2    1
     2     2     3   am
     3     2     4    2
     4     1     5    1
     5     1     6    1
     6     1     7    1
     7     3     8    1
     8     3     9    1
