@<TRIPOS>MOLECULE
*****
 41 40 0 0 0
SMALL
GASTEIGER

@<TRIPOS>ATOM
      1 C           0.9636   -0.0163    0.0917 C.3     1  UNL1        0.0365
      2 O           2.3836   -0.0163    0.0917 O.3     1  UNL1       -0.3807
      3 C           2.8570   -1.1153    0.8562 C.3     1  UNL1        0.0706
      4 C           4.3770   -1.1153    0.8562 C.3     1  UNL1        0.0711
      5 O           4.8503   -2.2144    1.6207 O.3     1  UNL1       -0.3752
      6 C           6.2703   -2.2144    1.6207 C.3     1  UNL1        0.0711
      7 C           6.7769   -3.3908    2.4390 C.3     1  UNL1        0.0711
      8 O           8.1969   -3.3908    2.4390 O.3     1  UNL1       -0.3760
      9 C           8.6703   -4.4899    3.2035 C.3     1  UNL1        0.0635
     10 C          10.1903   -4.4899    3.2035 C.3     1  UNL1        0.0378
     11 N          10.6803   -5.6277    3.9949 N.am    1  UNL1       -0.3023
     12 C           9.7250   -6.5449    4.6329 C.3     1  UNL1        0.0032
     13 C          12.1255   -5.8482    4.1483 C.2     1  UNL1        0.2166
     14 O          12.9514   -5.0552    3.5967 O.2     1  UNL1       -0.2756
     15 C          12.6322   -7.0246    4.9666 C.3     1  UNL1        0.0364
     16 C          14.1522   -7.0246    4.9666 C.3     1  UNL1        0.0014
     17 N          14.6422   -8.1624    5.7580 N.3     1  UNL1       -0.3295
     18 H           0.6070    0.8119   -0.4843 H       1  UNL1        0.0524
     19 H           0.6070    0.0685    1.0970 H       1  UNL1        0.0524
     20 H           0.6070   -0.9292   -0.3375 H       1  UNL1        0.0524
     21 H           2.5003   -2.0283    0.4270 H       1  UNL1        0.0582
     22 H           2.5003   -1.0305    1.8614 H       1  UNL1        0.0582
     23 H           4.7336   -0.2024    1.2854 H       1  UNL1        0.0583
     24 H           4.7336   -1.2001   -0.1490 H       1  UNL1        0.0583
     25 H           6.6270   -1.3014    2.0499 H       1  UNL1        0.0583
     26 H           6.6270   -2.2992    0.6155 H       1  UNL1        0.0583
     27 H           6.4203   -4.3038    2.0098 H       1  UNL1        0.0583
     28 H           6.4203   -3.3060    3.4442 H       1  UNL1        0.0583
     29 H           8.3136   -5.4029    2.7743 H       1  UNL1        0.0575
     30 H           8.3136   -4.4051    4.2087 H       1  UNL1        0.0575
     31 H          10.5469   -3.5769    3.6327 H       1  UNL1        0.0487
     32 H          10.5469   -4.5747    2.1983 H       1  UNL1        0.0487
     33 H           8.7265   -6.2293    4.4134 H       1  UNL1        0.0428
     34 H           9.8766   -6.5377    5.6921 H       1  UNL1        0.0428
     35 H           9.8766   -7.5354    4.2577 H       1  UNL1        0.0428
     36 H          12.2755   -7.9376    4.5374 H       1  UNL1        0.0371
     37 H          12.2755   -6.9398    5.9718 H       1  UNL1        0.0371
     38 H          14.5088   -6.1117    5.3958 H       1  UNL1        0.0426
     39 H          14.5088   -7.1094    3.9614 H       1  UNL1        0.0426
     40 H          14.3022   -8.0815    6.7163 H       1  UNL1        0.1182
     41 H          15.6622   -8.1624    5.7580 H       1  UNL1        0.1182
@<TRIPOS>BOND
     1     1     2    1
     2     2     3    1
     3     3     4    1
     4     4     5    1
     5     5     6    1
     6     6     7    1
     7     7     8    1
     8     8     9    1
     9     9    10    1
    10    10    11    1
    11    11    12    1
    12    11    13   am
    13    13    14    2
    14    13    15    1
    15    15    16    1
    16    16    17    1
    17     1    18    1
    18     1    19    1
    19     1    20    1
    20     3    21    1
    21     3    22    1
    22     4    23    1
    23     4    24    1
    24     6    25    1
    25     6    26    1
    26     7    27    1
    27     7    28    1
    28     9    29    1
    29     9    30    1
    30    10    31    1
    31    10    32    1
    32    12    33    1
    33    12    34    1
    34    12    35    1
    35    15    36    1
    36    15    37    1
    37    16    38    1
    38    16    39    1
    39    17    40    1
    40    17    41    1
