@<TRIPOS>MOLECULE
*****
 35 36 0 0 0
SMALL
GASTEIGER

@<TRIPOS>ATOM
      1 C           1.0771   -0.0456   -0.0444 C.3     1  UNL1       -0.0641
      2 C           2.5971   -0.0456   -0.0444 C.3     1  UNL1       -0.0431
      3 C           3.1038    1.1319    0.7724 C.3     1  UNL1       -0.0012
      4 N           4.5738    1.1319    0.7724 N.3     1  UNL1       -0.2994
      5 C           5.0638    2.2706    1.5625 C.3     1  UNL1        0.0147
      6 C           6.5838    2.2706    1.5625 C.3     1  UNL1        0.0263
      7 N           7.0738    3.4093    2.3525 N.pl3   1  UNL1       -0.3116
      8 C           6.1185    4.3273    2.9894 C.ar    1  UNL1        0.1396
      9 C           4.7026    4.1111    2.8393 C.ar    1  UNL1        0.0682
     10 N           3.7975    4.9809    3.4428 N.ar    1  UNL1       -0.2474
     11 CA          2.4281    4.7718    3.2977 C.ar    1  UNL1        0.1210
     12 C           1.9214    3.5944    2.4808 C.2     1  UNL1        0.1698
     13 O           2.7473    2.8007    1.9302 O.2     1  UNL1       -0.2940
     14 C           1.4922    5.6712    3.9217 C.ar    1  UNL1        0.0582
     15 N           6.5828    5.4063    3.7379 N.ar    1  UNL1       -0.2366
     16 C           8.5190    3.6300    2.5056 C.3     1  UNL1        0.0263
     17 C           5.0638    1.2467   -0.6087 C.3     1  UNL1        0.0147
     18 H           0.7205   -0.8745   -0.6195 H       1  UNL1        0.0230
     19 H           0.7205    0.8668   -0.4747 H       1  UNL1        0.0230
     20 H           0.7205   -0.1291    0.9609 H       1  UNL1        0.0230
     21 H           2.9538    0.0380   -1.0498 H       1  UNL1        0.0275
     22 H           2.9538   -0.9580    0.3859 H       1  UNL1        0.0275
     23 H           2.7471    1.0483    1.7778 H       1  UNL1        0.0426
     24 H           2.7471    2.0443    0.3422 H       1  UNL1        0.0426
     25 H           4.7071    2.1870    2.5678 H       1  UNL1        0.0442
     26 H           4.7071    3.1830    1.1322 H       1  UNL1        0.0442
     27 H           6.9404    2.3542    0.5571 H       1  UNL1        0.0477
     28 H           6.9404    1.3582    1.9928 H       1  UNL1        0.0477
     29 H           4.3586    3.3117    2.2847 H       1  UNL1        0.0865
     30 H           0.9068    3.4394    2.3733 H       1  UNL1        0.1098
     31 H           0.5690    6.0502    4.1846 H       1  UNL1        0.0853
     32 H           9.1159    3.1060    3.2225 H       1  UNL1        0.0477
     33 H           9.2722    4.3898    2.5263 H       1  UNL1        0.0477
     34 H           5.3740    0.3504   -1.1041 H       1  UNL1        0.0442
     35 H           4.5632    1.6193   -1.4779 H       1  UNL1        0.0442
@<TRIPOS>BOND
     1     1     2    1
     2     2     3    1
     3     3     4    1
     4     4     5    1
     5     5     6    1
     6     6     7    1
     7     7     8    1
     8     8     9   ar
     9     9    10   ar
    10    10    11   ar
    11    11    12    1
    12    12    13    2
    13    11    14   ar
    14    14    15   ar
    15     8    15   ar
    16     7    16    1
    17    16    17    1
    18     4    17    1
    19     1    18    1
    20     1    19    1
    21     1    20    1
    22     2    21    1
    23     2    22    1
    24     3    23    1
    25     3    24    1
    26     5    25    1
    27     5    26    1
    28     6    27    1
    29     6    28    1
    30     9    29    1
    31    12    30    1
    32    14    31    1
    33    16    32    1
    34    16    33    1
    35    17    34    1
    36    17    35    1
