@<TRIPOS>MOLECULE
*****
 24 23 0 0 0
SMALL
GASTEIGER

@<TRIPOS>ATOM
      1 C           1.0142    0.0557   -0.0818 C.3     1  UNL1       -0.0652
      2 C           2.5342    0.0557   -0.0818 C.3     1  UNL1       -0.0545
      3 C           3.0409   -0.5465   -1.3823 C.3     1  UNL1       -0.0376
      4 C           4.5609   -0.5465   -1.3823 C.3     1  UNL1        0.0116
      5 N           5.0509   -1.1288   -2.6399 N.am    1  UNL1       -0.3153
      6 C           6.4961   -1.2417   -2.8837 C.2     1  UNL1        0.2128
      7 O           7.3220   -0.8358   -2.0071 O.2     1  UNL1       -0.2758
      8 C           7.0028   -1.8439   -4.1841 C.3     1  UNL1        0.0211
      9 C           8.5228   -1.8439   -4.1841 C.3     1  UNL1       -0.0570
     10 H           0.6576    0.4796    0.8336 H       1  UNL1        0.0230
     11 H           0.6576   -0.9491   -0.1725 H       1  UNL1        0.0230
     12 H           0.6575    0.6365   -0.9067 H       1  UNL1        0.0230
     13 H           2.8909   -0.5252    0.7430 H       1  UNL1        0.0263
     14 H           2.8909    1.0604    0.0088 H       1  UNL1        0.0263
     15 H           2.6842    0.0344   -2.2071 H       1  UNL1        0.0280
     16 H           2.6842   -1.5512   -1.4729 H       1  UNL1        0.0280
     17 H           4.9175   -1.1273   -0.5575 H       1  UNL1        0.0462
     18 H           4.9175    0.4582   -1.2916 H       1  UNL1        0.0462
     19 H           4.4111   -1.4433   -3.3189 H       1  UNL1        0.1487
     20 H           6.6461   -1.2630   -5.0089 H       1  UNL1        0.0356
     21 H           6.6461   -2.8486   -4.2747 H       1  UNL1        0.0356
     22 H           8.8794   -0.8391   -4.0935 H       1  UNL1        0.0234
     23 H           8.8795   -2.2677   -5.0995 H       1  UNL1        0.0234
     24 H           8.8795   -2.4247   -3.3593 H       1  UNL1        0.0234
@<TRIPOS>BOND
     1     1     2    1
     2     2     3    1
     3     3     4    1
     4     4     5    1
     5     5     6   am
     6     6     7    2
     7     6     8    1
     8     8     9    1
     9     1    10    1
    10     1    11    1
    11     1    12    1
    12     2    13    1
    13     2    14    1
    14     3    15    1
    15     3    16    1
    16     4    17    1
    17     4    18    1
    18     5    19    1
    19     8    20    1
    20     8    21    1
    21     9    22    1
    22     9    23    1
    23     9    24    1
