@<TRIPOS>MOLECULE
*****
 31 30 0 0 0
SMALL
GASTEIGER

@<TRIPOS>ATOM
      1 C           1.0713   -0.0028    0.0701 C.3     1  UNL1       -0.0130
      2 N           2.5413   -0.0028    0.0701 N.3     1  UNL1       -0.3062
      3 C           3.0313    0.2156   -1.2985 C.3     1  UNL1       -0.0130
      4 C           3.0313    1.0732    0.9435 C.3     1  UNL1        0.0218
      5 C           4.5513    1.0732    0.9435 C.3     1  UNL1        0.0604
      6 O           5.0246    2.1126    1.7873 O.3     1  UNL1       -0.3762
      7 C           6.4446    2.1126    1.7873 C.3     1  UNL1        0.0711
      8 C           6.9513    3.2253    2.6905 C.3     1  UNL1        0.0711
      9 O           8.3713    3.2253    2.6905 O.3     1  UNL1       -0.3752
     10 C           8.8446    4.2647    3.5342 C.3     1  UNL1        0.0708
     11 C          10.3646    4.2647    3.5342 C.3     1  UNL1        0.0676
     12 O          10.8379    5.3041    4.3780 O.3     1  UNL1       -0.3927
     13 H           0.7146   -0.7861   -0.5657 H       1  UNL1        0.0391
     14 H           0.7146    0.9394   -0.2903 H       1  UNL1        0.0391
     15 H           0.7146   -0.1618    1.0663 H       1  UNL1        0.0391
     16 H           2.6746   -0.5677   -1.9343 H       1  UNL1        0.0391
     17 H           4.1013    0.2156   -1.2985 H       1  UNL1        0.0391
     18 H           2.6746    1.1578   -1.6589 H       1  UNL1        0.0391
     19 H           2.6746    0.9142    1.9397 H       1  UNL1        0.0449
     20 H           2.6746    2.0154    0.5831 H       1  UNL1        0.0449
     21 H           4.9080    1.2322   -0.0527 H       1  UNL1        0.0572
     22 H           4.9080    0.1310    1.3039 H       1  UNL1        0.0572
     23 H           6.8013    2.2716    0.7911 H       1  UNL1        0.0583
     24 H           6.8013    1.1704    2.1477 H       1  UNL1        0.0583
     25 H           6.5946    3.0663    3.6867 H       1  UNL1        0.0583
     26 H           6.5946    4.1675    2.3301 H       1  UNL1        0.0583
     27 H           8.4879    4.1057    4.5304 H       1  UNL1        0.0583
     28 H           8.4879    5.2069    3.1738 H       1  UNL1        0.0583
     29 H          10.7213    4.4237    2.5380 H       1  UNL1        0.0580
     30 H          10.7213    3.3225    3.8946 H       1  UNL1        0.0580
     31 H          10.5146    6.1583    4.0513 H       1  UNL1        0.2095
@<TRIPOS>BOND
     1     1     2    1
     2     2     3    1
     3     2     4    1
     4     4     5    1
     5     5     6    1
     6     6     7    1
     7     7     8    1
     8     8     9    1
     9     9    10    1
    10    10    11    1
    11    11    12    1
    12     1    13    1
    13     1    14    1
    14     1    15    1
    15     3    16    1
    16     3    17    1
    17     3    18    1
    18     4    19    1
    19     4    20    1
    20     5    21    1
    21     5    22    1
    22     7    23    1
    23     7    24    1
    24     8    25    1
    25     8    26    1
    26    10    27    1
    27    10    28    1
    28    11    29    1
    29    11    30    1
    30    12    31    1
