@<TRIPOS>MOLECULE
*****
 49 49 0 0 0
SMALL
GASTEIGER

@<TRIPOS>ATOM
      1 C           1.0114   -0.0831   -0.0544 C.3     1  UNL1       -0.0641
      2 C           2.5314   -0.0831   -0.0544 C.3     1  UNL1       -0.0431
      3 C           3.0381    0.1917    1.3521 C.3     1  UNL1       -0.0013
      4 N           4.5081    0.1917    1.3521 N.3     1  UNL1       -0.2999
      5 C           4.9981    0.4576    2.7123 C.3     1  UNL1        0.0117
      6 C           6.5181    0.4576    2.7123 C.3     1  UNL1        0.0117
      7 N           7.0081    0.7234    4.0725 N.3     1  UNL1       -0.2999
      8 C           6.5181   -0.3216    4.9828 C.3     1  UNL1       -0.0010
      9 C           4.9981   -0.3216    4.9828 C.3     1  UNL1       -0.0388
     10 C           4.4914   -1.4022    5.9241 C.3     1  UNL1       -0.0362
     11 C           2.9714   -1.4022    5.9241 C.3     1  UNL1        0.0116
     12 N           2.4814   -2.4472    6.8344 N.am    1  UNL1       -0.3153
     13 C           1.0361   -2.6498    7.0108 C.2     1  UNL1        0.2134
     14 O           0.2103   -1.9214    6.3763 O.2     1  UNL1       -0.2758
     15 C           0.5295   -3.7304    7.9521 C.3     1  UNL1        0.0303
     16 C          -0.9905   -3.7304    7.9521 C.3     1  UNL1        0.0110
     17 C          -1.4972   -4.8109    8.8934 C.2     1  UNL1        0.1208
     18 O          -2.7467   -4.9861    9.0459 O.2     1  UNL1       -0.3010
     19 C           8.4781    0.7234    4.0725 C.3     1  UNL1        0.0117
     20 C           4.9981    1.2368    0.4417 C.3     1  UNL1        0.0117
     21 H           0.6547   -0.2766   -1.0445 H       1  UNL1        0.0230
     22 H           0.6547    0.8710    0.2731 H       1  UNL1        0.0230
     23 H           0.6547   -0.8438    0.6082 H       1  UNL1        0.0230
     24 H           2.8881    0.6775   -0.7170 H       1  UNL1        0.0275
     25 H           2.8881   -1.0373   -0.3819 H       1  UNL1        0.0275
     26 H           2.6814   -0.5689    2.0147 H       1  UNL1        0.0426
     27 H           2.6814    1.1459    1.6795 H       1  UNL1        0.0426
     28 H           4.6414   -0.3031    3.3749 H       1  UNL1        0.0439
     29 H           4.6414    1.4118    3.0397 H       1  UNL1        0.0439
     30 H           6.8747    1.2183    2.0497 H       1  UNL1        0.0439
     31 H           6.8747   -0.4966    2.3848 H       1  UNL1        0.0439
     32 H           6.8747   -0.1281    5.9729 H       1  UNL1        0.0427
     33 H           6.8747   -1.2758    4.6553 H       1  UNL1        0.0427
     34 H           4.6414   -0.5151    3.9927 H       1  UNL1        0.0278
     35 H           4.6414    0.6326    5.3102 H       1  UNL1        0.0278
     36 H           4.8481   -1.2087    6.9141 H       1  UNL1        0.0281
     37 H           4.8481   -2.3564    5.5966 H       1  UNL1        0.0281
     38 H           2.6147   -1.5957    4.9340 H       1  UNL1        0.0462
     39 H           2.6147   -0.4480    6.2515 H       1  UNL1        0.0462
     40 H           3.1211   -3.0115    7.3259 H       1  UNL1        0.1487
     41 H           0.8861   -3.5369    8.9422 H       1  UNL1        0.0362
     42 H           0.8861   -4.6845    7.6246 H       1  UNL1        0.0362
     43 H          -1.3472   -3.9239    6.9620 H       1  UNL1        0.0343
     44 H          -1.3472   -2.7762    8.2795 H       1  UNL1        0.0343
     45 H          -0.8266   -5.4024    9.4086 H       1  UNL1        0.1026
     46 H           9.0457   -0.1758    4.1916 H       1  UNL1        0.0439
     47 H           9.3031    1.2499    4.5049 H       1  UNL1        0.0439
     48 H           5.2698    0.9424   -0.5504 H       1  UNL1        0.0439
     49 H           4.5015    2.1236    0.1073 H       1  UNL1        0.0439
@<TRIPOS>BOND
     1     1     2    1
     2     2     3    1
     3     3     4    1
     4     4     5    1
     5     5     6    1
     6     6     7    1
     7     7     8    1
     8     8     9    1
     9     9    10    1
    10    10    11    1
    11    11    12    1
    12    12    13   am
    13    13    14    2
    14    13    15    1
    15    15    16    1
    16    16    17    1
    17    17    18    2
    18     7    19    1
    19    19    20    1
    20     4    20    1
    21     1    21    1
    22     1    22    1
    23     1    23    1
    24     2    24    1
    25     2    25    1
    26     3    26    1
    27     3    27    1
    28     5    28    1
    29     5    29    1
    30     6    30    1
    31     6    31    1
    32     8    32    1
    33     8    33    1
    34     9    34    1
    35     9    35    1
    36    10    36    1
    37    10    37    1
    38    11    38    1
    39    11    39    1
    40    12    40    1
    41    15    41    1
    42    15    42    1
    43    16    43    1
    44    16    44    1
    45    17    45    1
    46    19    46    1
    47    19    47    1
    48    20    48    1
    49    20    49    1
