@<TRIPOS>MOLECULE
*****
 18 17 0 0 0
SMALL
GASTEIGER

@<TRIPOS>ATOM
      1 N           0.9981   -0.0547    0.0837 N.3     1  UNL1       -0.3279
      2 C           2.4681   -0.0547    0.0837 C.3     1  UNL1        0.0166
      3 C           2.9748   -0.1357   -1.3471 C.3     1  UNL1        0.0600
      4 O           4.3948   -0.1357   -1.3471 O.3     1  UNL1       -0.3763
      5 C           4.8681   -0.2114   -2.6837 C.3     1  UNL1        0.0708
      6 C           6.3881   -0.2114   -2.6837 C.3     1  UNL1        0.0676
      7 O           6.8614   -0.2870   -4.0204 O.3     1  UNL1       -0.3927
      8 H           0.6581   -0.0003    1.0438 H       1  UNL1        0.1183
      9 H           0.6581   -0.9134   -0.3493 H       1  UNL1        0.1183
     10 H           2.8248   -0.8984    0.6367 H       1  UNL1        0.0444
     11 H           2.8248    0.8461    0.5379 H       1  UNL1        0.0444
     12 H           2.6181    0.7081   -1.9001 H       1  UNL1        0.0572
     13 H           2.6181   -1.0364   -1.8013 H       1  UNL1        0.0572
     14 H           4.5114    0.6324   -3.2367 H       1  UNL1        0.0583
     15 H           4.5114   -1.1121   -3.1379 H       1  UNL1        0.0583
     16 H           6.7448   -1.0551   -2.1308 H       1  UNL1        0.0580
     17 H           6.7448    0.6894   -2.2295 H       1  UNL1        0.0580
     18 H           6.5381   -1.1036   -4.4321 H       1  UNL1        0.2095
@<TRIPOS>BOND
     1     1     2    1
     2     2     3    1
     3     3     4    1
     4     4     5    1
     5     5     6    1
     6     6     7    1
     7     1     8    1
     8     1     9    1
     9     2    10    1
    10     2    11    1
    11     3    12    1
    12     3    13    1
    13     5    14    1
    14     5    15    1
    15     6    16    1
    16     6    17    1
    17     7    18    1
