@<TRIPOS>MOLECULE
*****
 31 31 0 0 0
SMALL
GASTEIGER

@<TRIPOS>ATOM
      1 N           0.9966   -0.0585   -0.0811 N.pl3   1  UNL1       -0.3580
      2 C           2.4666   -0.0585   -0.0811 C.ar    1  UNL1        0.0246
      3 C           3.1867    0.5007    1.0338 C.ar    1  UNL1       -0.0403
      4 C           4.6269    0.5007    1.0338 C.ar    1  UNL1       -0.0479
      5 C           5.3470    1.0598    2.1487 C.ar    1  UNL1        0.0368
      6 C           4.5870    1.6499    3.3254 C.2     1  UNL1        0.2441
      7 O           5.2224    2.1433    4.3093 O.2     1  UNL1       -0.2702
      8 N           3.1170    1.6499    3.3254 N.am    1  UNL1       -0.3113
      9 C           2.3820    2.2206    4.4634 C.3     1  UNL1        0.0120
     10 C           0.8876    2.0961    4.2151 C.3     1  UNL1       -0.0353
     11 C           0.1276    2.6862    5.3918 C.3     1  UNL1       -0.0283
     12 C          -1.3668    2.5617    5.1435 C.3     1  UNL1        0.0443
     13 O          -2.0768    3.1130    6.2428 O.3     1  UNL1       -0.3950
     14 C           6.7872    1.0598    2.1487 C.ar    1  UNL1       -0.0479
     15 C           3.1867   -0.6176   -1.1960 C.ar    1  UNL1       -0.0403
     16 H           0.5043    0.3237    0.6811 H       1  UNL1        0.1423
     17 H           0.5043   -0.4407   -0.8432 H       1  UNL1        0.1423
     18 H           2.6707    0.9013    1.8327 H       1  UNL1        0.0636
     19 H           5.1429    0.1000    0.2349 H       1  UNL1        0.0626
     20 H           2.6247    1.2677    2.5633 H       1  UNL1        0.1490
     21 H           2.6405    3.2531    4.5733 H       1  UNL1        0.0462
     22 H           2.6405    1.6912    5.3566 H       1  UNL1        0.0462
     23 H           0.6291    1.0636    4.1052 H       1  UNL1        0.0281
     24 H           0.6291    2.6255    3.3219 H       1  UNL1        0.0281
     25 H           0.3861    3.7187    5.5017 H       1  UNL1        0.0288
     26 H           0.3861    2.1568    6.2850 H       1  UNL1        0.0288
     27 H          -1.6253    1.5292    5.0336 H       1  UNL1        0.0557
     28 H          -1.6253    3.0911    4.2503 H       1  UNL1        0.0557
     29 H          -1.8425    2.6330    7.0525 H       1  UNL1        0.2094
     30 H           7.7368    1.2409    2.5100 H       1  UNL1        0.0626
     31 H           3.0618   -1.0768   -2.1117 H       1  UNL1        0.0636
@<TRIPOS>BOND
     1     1     2    1
     2     2     3   ar
     3     3     4   ar
     4     4     5   ar
     5     5     6    1
     6     6     7    2
     7     6     8   am
     8     8     9    1
     9     9    10    1
    10    10    11    1
    11    11    12    1
    12    12    13    1
    13     5    14   ar
    14    14    15   ar
    15     2    15   ar
    16     1    16    1
    17     1    17    1
    18     3    18    1
    19     4    19    1
    20     8    20    1
    21     9    21    1
    22     9    22    1
    23    10    23    1
    24    10    24    1
    25    11    25    1
    26    11    26    1
    27    12    27    1
    28    12    28    1
    29    13    29    1
    30    14    30    1
    31    15    31    1
