@<TRIPOS>MOLECULE
*****
 38 40 0 0 0
SMALL
GASTEIGER

@<TRIPOS>ATOM
      1 C           0.9238   -0.0642   -0.0082 C.3     1  UNL1        0.0087
      2 C           2.4438   -0.0642   -0.0082 C.3     1  UNL1        0.0115
      3 N           2.9338    0.3086   -1.3430 N.3     1  UNL1       -0.2997
      4 C           2.4438    1.6510   -1.6876 C.3     1  UNL1        0.0018
      5 C           0.9238    1.6510   -1.6876 C.3     1  UNL1       -0.0272
      6 C           0.4171    3.0390   -2.0439 C.3     1  UNL1       -0.0421
      7 C          -1.1029    3.0390   -2.0439 C.3     1  UNL1       -0.0150
      8 C          -1.6095    4.4271   -2.4002 C.3     1  UNL1       -0.0336
      9 C          -3.1295    4.4271   -2.4002 C.3     1  UNL1       -0.0035
     10 N          -3.6195    5.7695   -2.7448 N.3     1  UNL1       -0.3154
     11 C          -1.6095    2.6536   -0.6637 C.3     1  UNL1        0.0016
     12 C           0.4171    1.2655   -0.3074 C.3     1  UNL1       -0.0421
     13 C           4.4038    0.3086   -1.3430 C.3     1  UNL1        0.0115
     14 C           4.9105    0.6940   -2.7233 C.3     1  UNL1        0.0087
     15 N           0.4338   -0.4370    1.3267 N.3     1  UNL1       -0.3136
     16 H           0.5671   -0.7700   -0.7290 H       1  UNL1        0.0437
     17 H           0.5671    0.9129   -0.2590 H       1  UNL1        0.0437
     18 H           2.8005   -1.0414    0.2426 H       1  UNL1        0.0439
     19 H           2.8005    0.6415    0.7126 H       1  UNL1        0.0439
     20 H           2.8005    1.9223   -2.6593 H       1  UNL1        0.0429
     21 H           2.8005    2.3567   -0.9668 H       1  UNL1        0.0429
     22 H           0.5671    0.9452   -2.4084 H       1  UNL1        0.0313
     23 H           0.7738    3.3104   -3.0156 H       1  UNL1        0.0274
     24 H           0.7738    3.7448   -1.3231 H       1  UNL1        0.0274
     25 H          -1.2529    4.6984   -3.3718 H       1  UNL1        0.0283
     26 H          -1.2529    5.1329   -1.6794 H       1  UNL1        0.0283
     27 H          -3.4862    4.1557   -1.4286 H       1  UNL1        0.0424
     28 H          -3.4862    3.7213   -3.1210 H       1  UNL1        0.0424
     29 H          -4.5404    6.1321   -2.4980 H       1  UNL1        0.1220
     30 H          -2.0960    1.7112   -0.5216 H       1  UNL1        0.0429
     31 H          -1.1560    2.5729    0.3021 H       1  UNL1        0.0429
     32 H           0.0722    0.2704   -0.1184 H       1  UNL1        0.0274
     33 H           0.8011    1.3158    0.6901 H       1  UNL1        0.0274
     34 H           4.7605   -0.6686   -1.0922 H       1  UNL1        0.0439
     35 H           4.7605    1.0143   -0.6222 H       1  UNL1        0.0439
     36 H           5.2481   -0.0083   -3.4566 H       1  UNL1        0.0437
     37 H           5.4124    1.4296   -3.3164 H       1  UNL1        0.0437
     38 H           0.1119    0.2325    2.0256 H       1  UNL1        0.1220
@<TRIPOS>BOND
     1     1     2    1
     2     2     3    1
     3     3     4    1
     4     4     5    1
     5     5     6    1
     6     6     7    1
     7     7     8    1
     8     8     9    1
     9     9    10    1
    10    10    11    1
    11     7    11    1
    12     7    12    1
    13     5    12    1
    14     3    13    1
    15    13    14    1
    16    14    15    1
    17     1    15    1
    18     1    16    1
    19     1    17    1
    20     2    18    1
    21     2    19    1
    22     4    20    1
    23     4    21    1
    24     5    22    1
    25     6    23    1
    26     6    24    1
    27     8    25    1
    28     8    26    1
    29     9    27    1
    30     9    28    1
    31    10    29    1
    32    11    30    1
    33    11    31    1
    34    12    32    1
    35    12    33    1
    36    13    34    1
    37    13    35    1
    38    14    36    1
    39    14    37    1
    40    15    38    1
