@<TRIPOS>MOLECULE
*****
 16 15 0 0 0
SMALL
GASTEIGER

@<TRIPOS>ATOM
      1 C           1.0696   -0.0416   -0.0585 C.1     1  UNL1       -0.1192
      2 C           2.3735   -0.0416   -0.0585 C.1     1  UNL1       -0.1056
      3 C           3.8935   -0.0416   -0.0585 C.3     1  UNL1        0.0089
      4 C           4.4002   -1.2107   -0.8873 C.3     1  UNL1       -0.0424
      5 C           5.9202   -1.2107   -0.8873 C.3     1  UNL1       -0.0551
      6 C           6.4268   -2.3797   -1.7162 C.3     1  UNL1       -0.0652
      7 H           0.0756   -0.0416   -0.0585 H       1  UNL1        0.1228
      8 H           4.2502   -0.1355    0.9460 H       1  UNL1        0.0397
      9 H           4.2502    0.8752   -0.4794 H       1  UNL1        0.0397
     10 H           4.0435   -1.1168   -1.8918 H       1  UNL1        0.0274
     11 H           4.0435   -2.1275   -0.4664 H       1  UNL1        0.0274
     12 H           6.2768   -1.3045    0.1171 H       1  UNL1        0.0263
     13 H           6.2768   -0.2939   -1.3083 H       1  UNL1        0.0263
     14 H           6.0701   -3.2965   -1.2953 H       1  UNL1        0.0230
     15 H           7.4968   -2.3797   -1.7162 H       1  UNL1        0.0230
     16 H           6.0701   -2.2859   -2.7206 H       1  UNL1        0.0230
@<TRIPOS>BOND
     1     1     2    3
     2     2     3    1
     3     3     4    1
     4     4     5    1
     5     5     6    1
     6     1     7    1
     7     3     8    1
     8     3     9    1
     9     4    10    1
    10     4    11    1
    11     5    12    1
    12     5    13    1
    13     6    14    1
    14     6    15    1
    15     6    16    1
