@<TRIPOS>MOLECULE
*****
 12 11 0 0 0
SMALL
GASTEIGER

@<TRIPOS>ATOM
      1 C           0.9870    0.0946    0.0298 C.3     1  UNL1       -0.0632
      2 C           2.5070    0.0946    0.0298 C.3     1  UNL1       -0.0326
      3 C           3.0136    1.1432   -0.9470 C.3     1  UNL1        0.0440
      4 O           4.4336    1.1432   -0.9470 O.3     1  UNL1       -0.3950
      5 H           0.6303   -0.6436    0.7174 H       1  UNL1        0.0230
      6 H           0.6303   -0.1318   -0.9533 H       1  UNL1        0.0230
      7 H           0.6303    1.0591    0.3253 H       1  UNL1        0.0230
      8 H           2.8636   -0.8700   -0.2657 H       1  UNL1        0.0285
      9 H           2.8636    0.3209    1.0129 H       1  UNL1        0.0285
     10 H           2.6570    2.1078   -0.6515 H       1  UNL1        0.0557
     11 H           2.6570    0.9168   -1.9300 H       1  UNL1        0.0557
     12 H           4.7570    1.3484   -0.0558 H       1  UNL1        0.2094
@<TRIPOS>BOND
     1     1     2    1
     2     2     3    1
     3     3     4    1
     4     1     5    1
     5     1     6    1
     6     1     7    1
     7     2     8    1
     8     2     9    1
     9     3    10    1
    10     3    11    1
    11     4    12    1
