@<TRIPOS>MOLECULE
*****
 30 30 0 0 0
SMALL
GASTEIGER

@<TRIPOS>ATOM
      1 C           0.9266    0.0161    0.0660 C.3     1  UNL1       -0.0191
      2 C           2.4466    0.0161    0.0660 C.ar    1  UNL1        0.0798
      3 C           3.1667    0.9424   -0.7693 C.ar    1  UNL1        0.0484
      4 N           4.5595    0.9424   -0.7693 N.ar    1  UNL1       -0.2515
      5 C           5.2945   -0.0031    0.0833 C.3     1  UNL1        0.0432
      6 C           4.3068   -0.8611    0.8569 C.3     1  UNL1       -0.0333
      7 C           5.0668   -1.8388    1.7384 C.3     1  UNL1       -0.0510
      8 C           4.0790   -2.6968    2.5121 C.3     1  UNL1       -0.0447
      9 C           4.8390   -3.6744    3.3936 C.3     1  UNL1        0.0237
     10 C           3.8513   -4.5324    4.1672 C.2     1  UNL1        0.2105
     11 N           2.4060   -4.3329    3.9874 N.am    1  UNL1       -0.3293
     12 O           4.2749   -5.4223    4.9696 O.2     1  UNL1       -0.2760
     13 N           5.2322    1.8077   -1.5495 N.ar    1  UNL1       -0.0655
     14 N           3.1430   -0.8798    0.8737 N.ar    1  UNL1       -0.1348
     15 H           0.5699    0.7653   -0.6096 H       1  UNL1        0.0294
     16 H           0.5699    0.2265    1.0526 H       1  UNL1        0.0294
     17 H           0.5699   -0.9436   -0.2451 H       1  UNL1        0.0294
     18 H           2.6507    1.6061   -1.3677 H       1  UNL1        0.0845
     19 H           5.9097    0.5398    0.7701 H       1  UNL1        0.0509
     20 H           5.9097   -0.6302   -0.5276 H       1  UNL1        0.0509
     21 H           3.6916   -1.4041    0.1701 H       1  UNL1        0.0283
     22 H           3.6916   -0.2340    1.4678 H       1  UNL1        0.0283
     23 H           5.6819   -1.2958    2.4252 H       1  UNL1        0.0266
     24 H           5.6819   -2.4659    1.1275 H       1  UNL1        0.0266
     25 H           3.4639   -3.2397    1.8253 H       1  UNL1        0.0270
     26 H           3.4639   -2.0696    3.1230 H       1  UNL1        0.0270
     27 H           5.4542   -3.1315    4.0804 H       1  UNL1        0.0358
     28 H           5.4542   -4.3015    2.7827 H       1  UNL1        0.0358
     29 H           2.0779   -3.6436    3.3658 H       1  UNL1        0.1449
     30 H           1.7663   -4.8887    4.4885 H       1  UNL1        0.1449
@<TRIPOS>BOND
     1     1     2    1
     2     2     3   ar
     3     3     4   ar
     4     4     5    1
     5     5     6    1
     6     6     7    1
     7     7     8    1
     8     8     9    1
     9     9    10    1
    10    10    11   am
    11    10    12    2
    12     4    13   ar
    13    13    14   ar
    14     2    14   ar
    15     1    15    1
    16     1    16    1
    17     1    17    1
    18     3    18    1
    19     5    19    1
    20     5    20    1
    21     6    21    1
    22     6    22    1
    23     7    23    1
    24     7    24    1
    25     8    25    1
    26     8    26    1
    27     9    27    1
    28     9    28    1
    29    11    29    1
    30    11    30    1
