@<TRIPOS>MOLECULE
*****
 23 23 0 0 0
SMALL
GASTEIGER

@<TRIPOS>ATOM
      1 C           0.9418   -0.0671   -0.0459 C.3     1  UNL1       -0.0397
      2 C           2.4618   -0.0671   -0.0459 C.ar    1  UNL1       -0.0502
      3 C           3.1819    0.7268    0.9160 C.ar    1  UNL1       -0.0554
      4 C           4.6221    0.7268    0.9160 C.ar    1  UNL1       -0.0197
      5 C           5.3422    1.5207    1.8780 C.ar    1  UNL1        0.1206
      6 O           4.6322    2.3035    2.8265 O.3     1  UNL1       -0.4897
      7 C           3.2122    2.3035    2.8265 C.3     1  UNL1        0.1126
      8 C           2.7055    3.2157    3.9317 C.3     1  UNL1        0.0783
      9 O           1.2855    3.2157    3.9317 O.3     1  UNL1       -0.3917
     10 C           6.7824    1.5207    1.8780 C.ar    1  UNL1       -0.0197
     11 C           3.1819   -0.8610   -1.0079 C.ar    1  UNL1       -0.0554
     12 H           0.5851    0.5750    0.7321 H       1  UNL1        0.0278
     13 H           0.5851   -1.0620    0.1212 H       1  UNL1        0.0278
     14 H           0.5851    0.2856   -0.9910 H       1  UNL1        0.0278
     15 H           2.6659    1.2957    1.6053 H       1  UNL1        0.0621
     16 H           5.1381    0.1579    0.2267 H       1  UNL1        0.0654
     17 H           2.8555    1.3086    2.9935 H       1  UNL1        0.0720
     18 H           2.8555    2.6562    1.8813 H       1  UNL1        0.0720
     19 H           3.0622    4.2106    3.7646 H       1  UNL1        0.0591
     20 H           3.0622    2.8629    4.8768 H       1  UNL1        0.0591
     21 H           0.9622    3.5355    3.0749 H       1  UNL1        0.2095
     22 H           7.7320    1.7779    2.1896 H       1  UNL1        0.0654
     23 H           3.0570   -1.5131   -1.7979 H       1  UNL1        0.0621
@<TRIPOS>BOND
     1     1     2    1
     2     2     3   ar
     3     3     4   ar
     4     4     5   ar
     5     5     6    1
     6     6     7    1
     7     7     8    1
     8     8     9    1
     9     5    10   ar
    10    10    11   ar
    11     2    11   ar
    12     1    12    1
    13     1    13    1
    14     1    14    1
    15     3    15    1
    16     4    16    1
    17     7    17    1
    18     7    18    1
    19     8    19    1
    20     8    20    1
    21     9    21    1
    22    10    22    1
    23    11    23    1
