@<TRIPOS>MOLECULE
*****
 27 26 0 0 0
SMALL
GASTEIGER

@<TRIPOS>ATOM
      1 C           1.0311   -0.0864    0.0397 C.3     1  UNL1        0.0365
      2 O           2.4511   -0.0864    0.0397 O.3     1  UNL1       -0.3807
      3 C           2.9244   -1.3537   -0.3919 C.3     1  UNL1        0.0706
      4 C           4.4444   -1.3537   -0.3919 C.3     1  UNL1        0.0711
      5 O           4.9178   -2.6210   -0.8235 O.3     1  UNL1       -0.3752
      6 C           6.3378   -2.6210   -0.8235 C.3     1  UNL1        0.0711
      7 C           6.8444   -3.9776   -1.2855 C.3     1  UNL1        0.0711
      8 O           8.2644   -3.9776   -1.2855 O.3     1  UNL1       -0.3752
      9 C           8.7378   -5.2449   -1.7170 C.3     1  UNL1        0.0708
     10 C          10.2578   -5.2449   -1.7170 C.3     1  UNL1        0.0676
     11 O          10.7311   -6.5122   -2.1486 O.3     1  UNL1       -0.3927
     12 H           0.6744    0.8686    0.3649 H       1  UNL1        0.0524
     13 H           0.6744   -0.8455    0.7041 H       1  UNL1        0.0524
     14 H           0.6744   -0.2822   -0.9499 H       1  UNL1        0.0524
     15 H           2.5678   -1.5495   -1.3815 H       1  UNL1        0.0582
     16 H           2.5678   -2.1128    0.2725 H       1  UNL1        0.0582
     17 H           4.8011   -1.1578    0.5977 H       1  UNL1        0.0583
     18 H           4.8011   -0.5946   -1.0563 H       1  UNL1        0.0583
     19 H           6.6944   -2.4252    0.1661 H       1  UNL1        0.0583
     20 H           6.6944   -1.8619   -1.4879 H       1  UNL1        0.0583
     21 H           6.4878   -4.1734   -2.2751 H       1  UNL1        0.0583
     22 H           6.4878   -4.7367   -0.6211 H       1  UNL1        0.0583
     23 H           8.3811   -5.4407   -2.7067 H       1  UNL1        0.0583
     24 H           8.3811   -6.0040   -1.0526 H       1  UNL1        0.0583
     25 H          10.6144   -5.0490   -0.7274 H       1  UNL1        0.0580
     26 H          10.6144   -4.4858   -2.3814 H       1  UNL1        0.0580
     27 H          10.4077   -7.2004   -1.5463 H       1  UNL1        0.2095
@<TRIPOS>BOND
     1     1     2    1
     2     2     3    1
     3     3     4    1
     4     4     5    1
     5     5     6    1
     6     6     7    1
     7     7     8    1
     8     8     9    1
     9     9    10    1
    10    10    11    1
    11     1    12    1
    12     1    13    1
    13     1    14    1
    14     3    15    1
    15     3    16    1
    16     4    17    1
    17     4    18    1
    18     6    19    1
    19     6    20    1
    20     7    21    1
    21     7    22    1
    22     9    23    1
    23     9    24    1
    24    10    25    1
    25    10    26    1
    26    11    27    1
