@<TRIPOS>MOLECULE
*****
 21 20 0 0 0
SMALL
GASTEIGER

@<TRIPOS>ATOM
      1 C           0.9529   -0.0482    0.0739 C.3     1  UNL1       -0.0653
      2 C           2.4729   -0.0482    0.0739 C.3     1  UNL1       -0.0555
      3 C           2.9796   -0.3249   -1.3322 C.3     1  UNL1       -0.0450
      4 C           4.4996   -0.3249   -1.3322 C.3     1  UNL1        0.0239
      5 C           5.0063   -0.6016   -2.7383 C.2     1  UNL1        0.2128
      6 O           4.1804   -0.7881   -3.6861 O.2     1  UNL1       -0.2758
      7 N           6.4515   -0.6535   -3.0018 N.am    1  UNL1       -0.3184
      8 C           6.9415   -0.9211   -4.3617 C.3     1  UNL1        0.0001
      9 H           0.5963    0.1466    1.0638 H       1  UNL1        0.0230
     10 H           0.5963   -1.0028   -0.2523 H       1  UNL1        0.0230
     11 H           0.5963    0.7116   -0.5897 H       1  UNL1        0.0230
     12 H           2.8296   -0.8080    0.7375 H       1  UNL1        0.0263
     13 H           2.8296    0.9064    0.4001 H       1  UNL1        0.0263
     14 H           2.6229    0.4349   -1.9958 H       1  UNL1        0.0270
     15 H           2.6229   -1.2795   -1.6584 H       1  UNL1        0.0270
     16 H           4.8563   -1.0847   -0.6686 H       1  UNL1        0.0358
     17 H           4.8563    0.6297   -1.0060 H       1  UNL1        0.0358
     18 H           7.0913   -0.5090   -2.2676 H       1  UNL1        0.1484
     19 H           6.1093   -1.0510   -5.0215 H       1  UNL1        0.0426
     20 H           7.5360   -1.8108   -4.3580 H       1  UNL1        0.0426
     21 H           7.5360   -0.0963   -4.6953 H       1  UNL1        0.0426
@<TRIPOS>BOND
     1     1     2    1
     2     2     3    1
     3     3     4    1
     4     4     5    1
     5     5     6    2
     6     5     7   am
     7     7     8    1
     8     1     9    1
     9     1    10    1
    10     1    11    1
    11     2    12    1
    12     2    13    1
    13     3    14    1
    14     3    15    1
    15     4    16    1
    16     4    17    1
    17     7    18    1
    18     8    19    1
    19     8    20    1
    20     8    21    1
