@<TRIPOS>MOLECULE
*****
 38 37 0 0 0
SMALL
GASTEIGER

@<TRIPOS>ATOM
      1 C           1.0544   -0.0407    0.0734 C.3     1  UNL1        0.0121
      2 C           2.5744   -0.0407    0.0734 C.2     1  UNL1        0.2100
      3 O           3.2098    0.8784    0.6789 O.2     1  UNL1       -0.2761
      4 N           3.3094   -1.1038   -0.6270 N.am    1  UNL1       -0.3133
      5 C           4.7794   -1.1038   -0.6270 C.3     1  UNL1        0.0350
      6 C           5.2861   -2.3004   -1.4155 C.3     1  UNL1        0.0632
      7 O           6.7061   -2.3004   -1.4155 O.3     1  UNL1       -0.3760
      8 C           7.1794   -3.4184   -2.1521 C.3     1  UNL1        0.0711
      9 C           8.6994   -3.4184   -2.1521 C.3     1  UNL1        0.0711
     10 O           9.1727   -4.5363   -2.8887 O.3     1  UNL1       -0.3752
     11 C          10.5927   -4.5363   -2.8887 C.3     1  UNL1        0.0711
     12 C          11.0994   -5.7330   -3.6771 C.3     1  UNL1        0.0710
     13 O          12.5194   -5.7330   -3.6771 O.3     1  UNL1       -0.3771
     14 C          12.9927   -6.8510   -4.4137 C.3     1  UNL1        0.0542
     15 C          14.5127   -6.8510   -4.4137 C.3     1  UNL1        0.0262
     16 C          15.0194   -8.0476   -5.2021 C.2     1  UNL1        0.1225
     17 O          16.2689   -8.2416   -5.3299 O.2     1  UNL1       -0.3010
     18 H           0.6977    0.8017    0.6284 H       1  UNL1        0.0322
     19 H           0.6977   -0.9426    0.5254 H       1  UNL1        0.0322
     20 H           0.6977    0.0188   -0.9337 H       1  UNL1        0.0322
     21 H           2.8171   -1.8157   -1.0961 H       1  UNL1        0.1488
     22 H           5.1361   -1.1632    0.3800 H       1  UNL1        0.0484
     23 H           5.1361   -0.2019   -1.0791 H       1  UNL1        0.0484
     24 H           4.9294   -2.2410   -2.4225 H       1  UNL1        0.0575
     25 H           4.9294   -3.2023   -0.9635 H       1  UNL1        0.0575
     26 H           6.8227   -3.3589   -3.1591 H       1  UNL1        0.0583
     27 H           6.8227   -4.3203   -1.7001 H       1  UNL1        0.0583
     28 H           9.0561   -3.4779   -1.1450 H       1  UNL1        0.0583
     29 H           9.0561   -2.5165   -2.6041 H       1  UNL1        0.0583
     30 H          10.9494   -4.5958   -1.8816 H       1  UNL1        0.0583
     31 H          10.9494   -3.6345   -3.3407 H       1  UNL1        0.0583
     32 H          10.7427   -5.6735   -4.6842 H       1  UNL1        0.0583
     33 H          10.7427   -6.6349   -3.2251 H       1  UNL1        0.0583
     34 H          12.6360   -6.7915   -5.4207 H       1  UNL1        0.0564
     35 H          12.6360   -7.7528   -3.9617 H       1  UNL1        0.0564
     36 H          14.8694   -6.9104   -3.4066 H       1  UNL1        0.0361
     37 H          14.8694   -5.9491   -4.8657 H       1  UNL1        0.0361
     38 H          14.3487   -8.7026   -5.6337 H       1  UNL1        0.1027
@<TRIPOS>BOND
     1     1     2    1
     2     2     3    2
     3     2     4   am
     4     4     5    1
     5     5     6    1
     6     6     7    1
     7     7     8    1
     8     8     9    1
     9     9    10    1
    10    10    11    1
    11    11    12    1
    12    12    13    1
    13    13    14    1
    14    14    15    1
    15    15    16    1
    16    16    17    2
    17     1    18    1
    18     1    19    1
    19     1    20    1
    20     4    21    1
    21     5    22    1
    22     5    23    1
    23     6    24    1
    24     6    25    1
    25     8    26    1
    26     8    27    1
    27     9    28    1
    28     9    29    1
    29    11    30    1
    30    11    31    1
    31    12    32    1
    32    12    33    1
    33    14    34    1
    34    14    35    1
    35    15    36    1
    36    15    37    1
    37    16    38    1
