@<TRIPOS>MOLECULE
*****
 25 25 0 0 0
SMALL
GASTEIGER

@<TRIPOS>ATOM
      1 C           0.9424    0.0801   -0.0162 C.1     1  UNL1       -0.1192
      2 C           2.2462    0.0801   -0.0162 C.1     1  UNL1       -0.1056
      3 C           3.7662    0.0801   -0.0162 C.3     1  UNL1        0.0089
      4 C           4.2729    0.1617   -1.4469 C.3     1  UNL1       -0.0405
      5 C           5.7929    0.1617   -1.4469 C.3     1  UNL1       -0.0325
      6 C           6.2996    0.2432   -2.8777 C.3     1  UNL1        0.0432
      7 N           7.7696    0.2432   -2.8777 N.ar    1  UNL1       -0.2515
      8 C           8.4660    0.3118   -4.0819 C.ar    1  UNL1        0.0484
      9 C           9.9062    0.3118   -4.0819 C.ar    1  UNL1        0.0798
     10 C          10.6662    0.2369   -2.7677 C.3     1  UNL1       -0.0191
     11 N          10.6026    0.3804   -5.2862 N.ar    1  UNL1       -0.1348
     12 N           8.4423    0.1769   -1.7143 N.ar    1  UNL1       -0.0655
     13 H          -0.0516    0.0801   -0.0162 H       1  UNL1        0.1228
     14 H           4.1229   -0.8208    0.4377 H       1  UNL1        0.0397
     15 H           4.1229    0.9237    0.5371 H       1  UNL1        0.0397
     16 H           3.9162    1.0626   -1.9008 H       1  UNL1        0.0275
     17 H           3.9162   -0.6819   -2.0002 H       1  UNL1        0.0275
     18 H           6.1496   -0.7393   -0.9930 H       1  UNL1        0.0283
     19 H           6.1496    1.0052   -0.8936 H       1  UNL1        0.0283
     20 H           5.9429    1.1441   -3.3315 H       1  UNL1        0.0509
     21 H           5.9429   -0.6003   -3.4309 H       1  UNL1        0.0509
     22 H           7.9500    0.3627   -4.9742 H       1  UNL1        0.0845
     23 H           9.9709    0.1907   -1.9557 H       1  UNL1        0.0294
     24 H          11.2813    1.1059   -2.6614 H       1  UNL1        0.0294
     25 H          11.2813   -0.6385   -2.7608 H       1  UNL1        0.0294
@<TRIPOS>BOND
     1     1     2    3
     2     2     3    1
     3     3     4    1
     4     4     5    1
     5     5     6    1
     6     6     7    1
     7     7     8   ar
     8     8     9   ar
     9     9    10    1
    10     9    11   ar
    11    11    12   ar
    12     7    12   ar
    13     1    13    1
    14     3    14    1
    15     3    15    1
    16     4    16    1
    17     4    17    1
    18     5    18    1
    19     5    19    1
    20     6    20    1
    21     6    21    1
    22     8    22    1
    23    10    23    1
    24    10    24    1
    25    10    25    1
