@<TRIPOS>MOLECULE
*****
 32 32 0 0 0
SMALL
GASTEIGER

@<TRIPOS>ATOM
      1 N           1.0672   -0.0459    0.0581 N.am    1  UNL1       -0.3293
      2 C           2.5372   -0.0459    0.0581 C.2     1  UNL1        0.2122
      3 O           3.1727   -0.5397    1.0417 O.2     1  UNL1       -0.2760
      4 C           3.2972    0.5448   -1.1183 C.3     1  UNL1        0.0433
      5 C           4.7916    0.4201   -0.8701 C.3     1  UNL1        0.0514
      6 N           5.5266    0.9914   -2.0078 N.ar    1  UNL1       -0.2510
      7 C           6.9195    0.9914   -2.0078 C.ar    1  UNL1        0.0486
      8 C           7.6396    1.5510   -3.1225 C.ar    1  UNL1        0.0828
      9 C           6.8796    2.1416   -4.2989 C.3     1  UNL1       -0.0071
     10 C           5.3852    2.0170   -4.0506 C.3     1  UNL1       -0.0472
     11 C           4.6252    2.6076   -5.2271 C.3     1  UNL1       -0.0463
     12 C           3.1308    2.4830   -4.9788 C.3     1  UNL1        0.0028
     13 C           2.3708    3.0736   -6.1553 C.2     1  UNL1        0.1203
     14 O           1.0999    3.0736   -6.1553 O.2     1  UNL1       -0.3010
     15 N           9.0324    1.5510   -3.1225 N.ar    1  UNL1       -0.1345
     16 N           4.8539    1.5142   -3.0491 N.ar    1  UNL1       -0.0654
     17 H           0.5750   -0.4284    0.8201 H       1  UNL1        0.1449
     18 H           0.5750    0.3367   -0.7039 H       1  UNL1        0.1449
     19 H           3.0387    1.5773   -1.2278 H       1  UNL1        0.0376
     20 H           3.0387    0.0158   -2.0117 H       1  UNL1        0.0376
     21 H           5.0501   -0.6124   -0.7606 H       1  UNL1        0.0514
     22 H           5.0501    0.9492    0.0233 H       1  UNL1        0.0514
     23 H           7.4355    0.5903   -1.2091 H       1  UNL1        0.0845
     24 H           7.1381    1.6126   -5.1923 H       1  UNL1        0.0329
     25 H           7.1381    3.1741   -4.4083 H       1  UNL1        0.0329
     26 H           5.1267    2.5460   -3.1572 H       1  UNL1        0.0269
     27 H           5.1267    0.9845   -3.9412 H       1  UNL1        0.0269
     28 H           4.8837    2.0786   -6.1205 H       1  UNL1        0.0269
     29 H           4.8837    3.6401   -5.3365 H       1  UNL1        0.0269
     30 H           2.8723    3.0120   -4.0854 H       1  UNL1        0.0339
     31 H           2.8723    1.4505   -4.8694 H       1  UNL1        0.0339
     32 H           2.8868    3.4746   -6.9540 H       1  UNL1        0.1026
@<TRIPOS>BOND
     1     1     2   am
     2     2     3    2
     3     2     4    1
     4     4     5    1
     5     5     6    1
     6     6     7   ar
     7     7     8   ar
     8     8     9    1
     9     9    10    1
    10    10    11    1
    11    11    12    1
    12    12    13    1
    13    13    14    2
    14     8    15   ar
    15    15    16   ar
    16     6    16   ar
    17     1    17    1
    18     1    18    1
    19     4    19    1
    20     4    20    1
    21     5    21    1
    22     5    22    1
    23     7    23    1
    24     9    24    1
    25     9    25    1
    26    10    26    1
    27    10    27    1
    28    11    28    1
    29    11    29    1
    30    12    30    1
    31    12    31    1
    32    13    32    1
