@<TRIPOS>MOLECULE
*****
 33 33 0 0 0
SMALL
GASTEIGER

@<TRIPOS>ATOM
      1 C           1.0411    0.0878   -0.0246 C.3     1  UNL1       -0.0653
      2 C           2.5611    0.0878   -0.0246 C.3     1  UNL1       -0.0555
      3 C           3.0677   -1.0351   -0.9151 C.3     1  UNL1       -0.0450
      4 C           4.5877   -1.0351   -0.9151 C.3     1  UNL1        0.0241
      5 C           5.0944   -2.1579   -1.8055 C.2     1  UNL1        0.2156
      6 O           4.2685   -2.9148   -2.4058 O.2     1  UNL1       -0.2756
      7 N           6.5397   -2.3684   -1.9724 N.am    1  UNL1       -0.2990
      8 C           7.0297   -3.4543   -2.8336 C.3     1  UNL1        0.0275
      9 C           8.5497   -3.4543   -2.8336 C.3     1  UNL1        0.0145
     10 N           9.0396   -4.5402   -3.6948 N.3     1  UNL1       -0.3024
     11 C           8.5496   -4.3373   -5.0658 C.3     1  UNL1       -0.0126
     12 C          10.5096   -4.5402   -3.6948 C.3     1  UNL1        0.0145
     13 C           7.4949   -1.4929   -1.2782 C.3     1  UNL1        0.0275
     14 H           0.6844    0.8782    0.6022 H       1  UNL1        0.0230
     15 H           0.6844   -0.8503    0.3465 H       1  UNL1        0.0230
     16 H           0.6844    0.2354   -1.0225 H       1  UNL1        0.0230
     17 H           2.9178   -0.0599    0.9733 H       1  UNL1        0.0263
     18 H           2.9178    1.0259   -0.3957 H       1  UNL1        0.0263
     19 H           2.7111   -0.8874   -1.9130 H       1  UNL1        0.0270
     20 H           2.7111   -1.9731   -0.5440 H       1  UNL1        0.0270
     21 H           4.9444   -1.1827    0.0829 H       1  UNL1        0.0358
     22 H           4.9444   -0.0970   -1.2862 H       1  UNL1        0.0358
     23 H           6.6730   -3.3066   -3.8316 H       1  UNL1        0.0477
     24 H           6.6730   -4.3923   -2.4625 H       1  UNL1        0.0477
     25 H           8.9063   -3.6019   -1.8357 H       1  UNL1        0.0442
     26 H           8.9063   -2.5162   -3.2047 H       1  UNL1        0.0442
     27 H           7.4796   -4.3373   -5.0658 H       1  UNL1        0.0391
     28 H           8.9063   -5.1277   -5.6926 H       1  UNL1        0.0391
     29 H           8.9063   -3.3993   -5.4369 H       1  UNL1        0.0391
     30 H          11.0644   -4.2103   -4.5482 H       1  UNL1        0.0442
     31 H          11.3078   -5.2168   -3.4712 H       1  UNL1        0.0442
     32 H           7.5097   -0.4662   -1.5790 H       1  UNL1        0.0477
     33 H           7.5146   -1.2780   -0.2302 H       1  UNL1        0.0477
@<TRIPOS>BOND
     1     1     2    1
     2     2     3    1
     3     3     4    1
     4     4     5    1
     5     5     6    2
     6     5     7   am
     7     7     8    1
     8     8     9    1
     9     9    10    1
    10    10    11    1
    11    10    12    1
    12    12    13    1
    13     7    13    1
    14     1    14    1
    15     1    15    1
    16     1    16    1
    17     2    17    1
    18     2    18    1
    19     3    19    1
    20     3    20    1
    21     4    21    1
    22     4    22    1
    23     8    23    1
    24     8    24    1
    25     9    25    1
    26     9    26    1
    27    11    27    1
    28    11    28    1
    29    11    29    1
    30    12    30    1
    31    12    31    1
    32    13    32    1
    33    13    33    1
