@<TRIPOS>MOLECULE
*****
 49 49 0 0 0
SMALL
GASTEIGER

@<TRIPOS>ATOM
      1 C           1.0596   -0.0656    0.0463 C.3     1  UNL1       -0.0416
      2 C           2.5796   -0.0656    0.0463 C.3     1  UNL1        0.0449
      3 O           3.0529   -0.0602   -1.2924 O.3     1  UNL1       -0.3778
      4 C           4.4729   -0.0602   -1.2924 C.3     1  UNL1        0.0710
      5 C           4.9795   -0.0544   -2.7255 C.3     1  UNL1        0.0711
      6 O           6.3995   -0.0544   -2.7255 O.3     1  UNL1       -0.3752
      7 C           6.8729   -0.0490   -4.0643 C.3     1  UNL1        0.0711
      8 C           8.3929   -0.0490   -4.0643 C.3     1  UNL1        0.0711
      9 O           8.8662   -0.0436   -5.4031 O.3     1  UNL1       -0.3752
     10 C          10.2862   -0.0436   -5.4031 C.3     1  UNL1        0.0711
     11 C          10.7929   -0.0378   -6.8361 C.3     1  UNL1        0.0711
     12 O          12.2129   -0.0378   -6.8361 O.3     1  UNL1       -0.3752
     13 C          12.6862   -0.0324   -8.1749 C.3     1  UNL1        0.0711
     14 C          14.2062   -0.0324   -8.1749 C.3     1  UNL1        0.0711
     15 O          14.6795   -0.0270   -9.5137 O.3     1  UNL1       -0.3757
     16 C          16.0995   -0.0270   -9.5137 C.3     1  UNL1        0.0673
     17 C          16.6062   -0.0212  -10.9467 C.3     1  UNL1        0.0665
     18 N          18.0762   -0.0212  -10.9467 N.ar    1  UNL1       -0.2495
     19 C          18.7726   -0.0164  -12.1529 C.ar    1  UNL1        0.0455
     20 C          20.2128   -0.0164  -12.1529 C.ar    1  UNL1        0.0693
     21 N          20.9092   -0.0115  -13.3592 N.ar    1  UNL1       -0.1380
     22 N          18.7489   -0.0259   -9.7815 N.ar    1  UNL1       -0.0657
     23 H           0.7029   -0.0697    1.0551 H       1  UNL1        0.0252
     24 H           0.7029   -0.9372   -0.4616 H       1  UNL1        0.0252
     25 H           0.7029    0.8101   -0.4545 H       1  UNL1        0.0252
     26 H           2.9362   -0.9413    0.5472 H       1  UNL1        0.0557
     27 H           2.9362    0.8060    0.5543 H       1  UNL1        0.0557
     28 H           4.8296   -0.9359   -0.7916 H       1  UNL1        0.0583
     29 H           4.8296    0.8114   -0.7845 H       1  UNL1        0.0583
     30 H           4.6229    0.8213   -3.2264 H       1  UNL1        0.0583
     31 H           4.6229   -0.9260   -3.2334 H       1  UNL1        0.0583
     32 H           6.5162    0.8267   -4.5651 H       1  UNL1        0.0583
     33 H           6.5162   -0.9206   -4.5722 H       1  UNL1        0.0583
     34 H           8.7495   -0.9247   -3.5634 H       1  UNL1        0.0583
     35 H           8.7495    0.8226   -3.5563 H       1  UNL1        0.0583
     36 H          10.6429   -0.9193   -4.9022 H       1  UNL1        0.0583
     37 H          10.6429    0.8280   -4.8951 H       1  UNL1        0.0583
     38 H          10.4362    0.8378   -7.3370 H       1  UNL1        0.0583
     39 H          10.4362   -0.9094   -7.3440 H       1  UNL1        0.0583
     40 H          12.3295    0.8433   -8.6758 H       1  UNL1        0.0583
     41 H          12.3295   -0.9040   -8.6828 H       1  UNL1        0.0583
     42 H          14.5629   -0.9081   -7.6740 H       1  UNL1        0.0583
     43 H          14.5629    0.8392   -7.6670 H       1  UNL1        0.0583
     44 H          16.4562   -0.9027   -9.0128 H       1  UNL1        0.0578
     45 H          16.4562    0.8446   -9.0057 H       1  UNL1        0.0578
     46 H          16.2495    0.8544  -11.4476 H       1  UNL1        0.0532
     47 H          16.2495   -0.8928  -11.4547 H       1  UNL1        0.0532
     48 H          18.2566   -0.0128  -13.0467 H       1  UNL1        0.0842
     49 H          20.7288   -0.0200  -11.2592 H       1  UNL1        0.0864
@<TRIPOS>BOND
     1     1     2    1
     2     2     3    1
     3     3     4    1
     4     4     5    1
     5     5     6    1
     6     6     7    1
     7     7     8    1
     8     8     9    1
     9     9    10    1
    10    10    11    1
    11    11    12    1
    12    12    13    1
    13    13    14    1
    14    14    15    1
    15    15    16    1
    16    16    17    1
    17    17    18    1
    18    18    19   ar
    19    19    20   ar
    20    20    21   ar
    21    21    22   ar
    22    18    22   ar
    23     1    23    1
    24     1    24    1
    25     1    25    1
    26     2    26    1
    27     2    27    1
    28     4    28    1
    29     4    29    1
    30     5    30    1
    31     5    31    1
    32     7    32    1
    33     7    33    1
    34     8    34    1
    35     8    35    1
    36    10    36    1
    37    10    37    1
    38    11    38    1
    39    11    39    1
    40    13    40    1
    41    13    41    1
    42    14    42    1
    43    14    43    1
    44    16    44    1
    45    16    45    1
    46    17    46    1
    47    17    47    1
    48    19    48    1
    49    20    49    1
