@<TRIPOS>MOLECULE
*****
 36 36 0 0 0
SMALL
GASTEIGER

@<TRIPOS>ATOM
      1 C           1.0431   -0.0894    0.0123 C.3     1  UNL1       -0.0653
      2 C           2.5631   -0.0894    0.0123 C.3     1  UNL1       -0.0559
      3 C           3.0698   -0.9878    1.1287 C.3     1  UNL1       -0.0533
      4 C           4.5898   -0.9878    1.1287 C.3     1  UNL1       -0.0531
      5 C           5.0965   -1.8862    2.2452 C.3     1  UNL1       -0.0530
      6 C           6.6165   -1.8862    2.2452 C.3     1  UNL1       -0.0514
      7 C           7.1231   -2.7846    3.3617 C.3     1  UNL1       -0.0333
      8 C           8.6431   -2.7846    3.3617 C.3     1  UNL1        0.0432
      9 N           9.1331   -3.6535    4.4415 N.ar    1  UNL1       -0.2510
     10 C          10.5025   -3.8131    4.6398 C.ar    1  UNL1        0.0579
     11 C          10.9826   -4.6643    5.6976 C.ar    1  UNL1        0.1666
     12 C           9.9948   -5.3886    6.5977 C.2     1  UNL1        0.2632
     13 N          10.4848   -6.2575    7.6775 N.am    1  UNL1       -0.3240
     14 O           8.7453   -5.2430    6.4168 O.2     1  UNL1       -0.2686
     15 N          12.3519   -4.8239    5.8959 N.ar    1  UNL1       -0.1248
     16 N           8.2588   -4.2946    5.2382 N.ar    1  UNL1       -0.0650
     17 H           0.6865    0.5431   -0.7737 H       1  UNL1        0.0230
     18 H           0.6865    0.2750    0.9529 H       1  UNL1        0.0230
     19 H           0.6865   -1.0862   -0.1425 H       1  UNL1        0.0230
     20 H           2.9198    0.9075    0.1670 H       1  UNL1        0.0263
     21 H           2.9198   -0.4538   -0.9284 H       1  UNL1        0.0263
     22 H           2.7131   -1.9847    0.9740 H       1  UNL1        0.0265
     23 H           2.7131   -0.6234    2.0694 H       1  UNL1        0.0265
     24 H           4.9465    0.0091    1.2835 H       1  UNL1        0.0265
     25 H           4.9465   -1.3522    0.1881 H       1  UNL1        0.0265
     26 H           4.7398   -2.8831    2.0905 H       1  UNL1        0.0265
     27 H           4.7398   -1.5218    3.1859 H       1  UNL1        0.0265
     28 H           6.9731   -0.8894    2.4000 H       1  UNL1        0.0266
     29 H           6.9731   -2.2506    1.3045 H       1  UNL1        0.0266
     30 H           6.7665   -3.7815    3.2070 H       1  UNL1        0.0283
     31 H           6.7665   -2.4202    4.3024 H       1  UNL1        0.0283
     32 H           8.9998   -1.7878    3.5165 H       1  UNL1        0.0509
     33 H           8.9998   -3.1491    2.4210 H       1  UNL1        0.0509
     34 H          11.1731   -3.3213    4.0286 H       1  UNL1        0.0850
     35 H          11.4527   -6.3703    7.8176 H       1  UNL1        0.1453
     36 H           9.8450   -6.7266    8.2605 H       1  UNL1        0.1453
@<TRIPOS>BOND
     1     1     2    1
     2     2     3    1
     3     3     4    1
     4     4     5    1
     5     5     6    1
     6     6     7    1
     7     7     8    1
     8     8     9    1
     9     9    10   ar
    10    10    11   ar
    11    11    12    1
    12    12    13   am
    13    12    14    2
    14    11    15   ar
    15    15    16   ar
    16     9    16   ar
    17     1    17    1
    18     1    18    1
    19     1    19    1
    20     2    20    1
    21     2    21    1
    22     3    22    1
    23     3    23    1
    24     4    24    1
    25     4    25    1
    26     5    26    1
    27     5    27    1
    28     6    28    1
    29     6    29    1
    30     7    30    1
    31     7    31    1
    32     8    32    1
    33     8    33    1
    34    10    34    1
    35    13    35    1
    36    13    36    1
