@<TRIPOS>MOLECULE
*****
 37 38 0 0 0
SMALL
GASTEIGER

@<TRIPOS>ATOM
      1 O           0.9428    0.0561   -0.0599 O.2     1  UNL1       -0.2793
      2 C           2.2137    0.0561   -0.0599 C.2     1  UNL1        0.2025
      3 N           2.9487   -0.9678   -0.8163 N.am    1  UNL1       -0.3040
      4 C           4.4187   -0.9678   -0.8163 C.3     1  UNL1        0.0147
      5 C           4.9254   -2.1205   -1.6679 C.3     1  UNL1       -0.0331
      6 C           6.4454   -2.1205   -1.6679 C.3     1  UNL1       -0.0254
      7 C           6.9521   -2.2816   -0.2439 C.3     1  UNL1        0.0019
      8 N           6.4621   -1.1669    0.5796 N.3     1  UNL1       -0.2993
      9 C           6.9521   -1.3228    1.9568 C.3     1  UNL1       -0.0009
     10 C           6.4454   -0.1701    2.8083 C.3     1  UNL1       -0.0376
     11 C           6.9521   -0.3313    4.2323 C.3     1  UNL1       -0.0194
     12 C           6.4454    0.8213    5.0838 C.3     1  UNL1        0.1136
     13 F           6.0814    2.0090    5.5591 F       1  UNL1       -0.2442
     14 C           4.9921   -1.1669    0.5796 C.3     1  UNL1        0.0301
     15 C           6.9520   -3.2731   -2.5195 C.3     1  UNL1       -0.0331
     16 C           2.2137   -1.9918   -1.5728 C.3     1  UNL1        0.0147
     17 H           2.7297    0.7749    0.4712 H       1  UNL1        0.1253
     18 H           4.7754   -1.0813    0.1861 H       1  UNL1        0.0464
     19 H           4.7754   -0.0430   -1.2193 H       1  UNL1        0.0464
     20 H           4.5687   -2.0070   -2.6703 H       1  UNL1        0.0283
     21 H           4.5687   -3.0453   -1.2649 H       1  UNL1        0.0283
     22 H           6.8021   -1.1956   -2.0709 H       1  UNL1        0.0314
     23 H           8.0221   -2.2816   -0.2439 H       1  UNL1        0.0429
     24 H           6.5954   -3.2065    0.1590 H       1  UNL1        0.0429
     25 H           8.0221   -1.3228    1.9568 H       1  UNL1        0.0427
     26 H           6.5954   -2.2476    2.3597 H       1  UNL1        0.0427
     27 H           5.3754   -0.1701    2.8083 H       1  UNL1        0.0278
     28 H           6.8021    0.7547    2.4053 H       1  UNL1        0.0278
     29 H           8.0221   -0.3313    4.2323 H       1  UNL1        0.0294
     30 H           6.5954   -1.2561    4.6352 H       1  UNL1        0.0294
     31 H           6.6566    1.0602    6.1052 H       1  UNL1        0.0664
     32 H           4.4972   -0.5170   -0.1115 H       1  UNL1        0.0455
     33 H           4.3218   -1.9793    0.3906 H       1  UNL1        0.0455
     34 H           7.3922   -4.1408   -2.0743 H       1  UNL1        0.0283
     35 H           7.5858   -3.4215   -3.3687 H       1  UNL1        0.0283
     36 H           1.6359   -2.6866   -0.9999 H       1  UNL1        0.0464
     37 H           1.4478   -1.8153   -2.2989 H       1  UNL1        0.0464
@<TRIPOS>BOND
     1     1     2    2
     2     2     3   am
     3     3     4    1
     4     4     5    1
     5     5     6    1
     6     6     7    1
     7     7     8    1
     8     8     9    1
     9     9    10    1
    10    10    11    1
    11    11    12    1
    12    12    14    1
    13     8    14    1
    14     6    15    1
    15    15    16    1
    16     3    16    1
    17    12    13    1
    18     2    17    1
    19     4    18    1
    20     4    19    1
    21     5    20    1
    22     5    21    1
    23     6    22    1
    24     7    23    1
    25     7    24    1
    26     9    25    1
    27     9    26    1
    28    10    27    1
    29    10    28    1
    30    11    29    1
    31    11    30    1
    32    12    31    1
    33    14    32    1
    34    14    33    1
    35    15    34    1
    36    15    35    1
    37    16    36    1
    38    16    37    1
