@<TRIPOS>MOLECULE
*****
 18 17 0 0 0
SMALL
GASTEIGER

@<TRIPOS>ATOM
      1 C           0.9177   -0.0132    0.0552 C.3     1  UNL1       -0.0653
      2 C           2.4377   -0.0132    0.0552 C.3     1  UNL1       -0.0558
      3 C           2.9443    1.4155    0.1678 C.3     1  UNL1       -0.0512
      4 C           4.4643    1.4155    0.1678 C.3     1  UNL1       -0.0297
      5 C           4.9710    2.8441    0.2804 C.3     1  UNL1        0.0442
      6 O           6.3910    2.8441    0.2804 O.3     1  UNL1       -0.3950
      7 H           0.5610   -1.0188   -0.0240 H       1  UNL1        0.0230
      8 H           0.5610    0.5583   -0.7761 H       1  UNL1        0.0230
      9 H           0.5610    0.4211    0.9658 H       1  UNL1        0.0230
     10 H           2.7943   -0.4474   -0.8554 H       1  UNL1        0.0263
     11 H           2.7943   -0.5846    0.8865 H       1  UNL1        0.0263
     12 H           2.5877    1.8497    1.0784 H       1  UNL1        0.0266
     13 H           2.5877    1.9870   -0.6635 H       1  UNL1        0.0266
     14 H           4.8210    0.9813   -0.7428 H       1  UNL1        0.0287
     15 H           4.8210    0.8440    0.9991 H       1  UNL1        0.0287
     16 H           4.6143    3.2783    1.1909 H       1  UNL1        0.0557
     17 H           4.6143    3.4156   -0.5510 H       1  UNL1        0.0557
     18 H           6.7143    2.3261    1.0340 H       1  UNL1        0.2094
@<TRIPOS>BOND
     1     1     2    1
     2     2     3    1
     3     3     4    1
     4     4     5    1
     5     5     6    1
     6     1     7    1
     7     1     8    1
     8     1     9    1
     9     2    10    1
    10     2    11    1
    11     3    12    1
    12     3    13    1
    13     4    14    1
    14     4    15    1
    15     5    16    1
    16     5    17    1
    17     6    18    1
