@<TRIPOS>MOLECULE
*****
 32 31 0 0 0
SMALL
GASTEIGER

@<TRIPOS>ATOM
      1 O           1.0330    0.0456   -0.0827 O.2     1  UNL1       -0.2986
      2 C           2.3039    0.0456   -0.0827 C.2     1  UNL1        0.1458
      3 C           3.0639    1.2938    0.3353 C.3     1  UNL1        0.1028
      4 O           4.4600    1.0478    0.2529 O.3     1  UNL1       -0.3703
      5 C           5.1700    2.2139    0.6434 C.3     1  UNL1        0.0715
      6 C           6.6644    1.9505    0.5552 C.3     1  UNL1        0.0711
      7 O           7.3744    3.1166    0.9457 O.3     1  UNL1       -0.3752
      8 C           8.7705    2.8706    0.8633 C.3     1  UNL1        0.0711
      9 C           9.5305    4.1188    1.2813 C.3     1  UNL1        0.0711
     10 O          10.9266    3.8727    1.1989 O.3     1  UNL1       -0.3760
     11 C          11.6366    5.0389    1.5894 C.3     1  UNL1        0.0632
     12 C          13.1310    4.7755    1.5012 C.3     1  UNL1        0.0348
     13 N          13.8660    5.9827    1.9054 N.am    1  UNL1       -0.3157
     14 C          15.3360    5.9827    1.9054 C.2     1  UNL1        0.2000
     15 O          15.9715    7.0263    2.2549 O.2     1  UNL1       -0.2795
     16 H           2.8199   -0.8019   -0.3664 H       1  UNL1        0.1051
     17 H           2.8054    1.5485    1.3419 H       1  UNL1        0.0636
     18 H           2.8054    2.1033   -0.3150 H       1  UNL1        0.0636
     19 H           4.9115    2.4685    1.6500 H       1  UNL1        0.0583
     20 H           4.9115    3.0233   -0.0069 H       1  UNL1        0.0583
     21 H           6.9229    1.6959   -0.4514 H       1  UNL1        0.0583
     22 H           6.9229    1.1410    1.2055 H       1  UNL1        0.0583
     23 H           9.0290    2.6159   -0.1433 H       1  UNL1        0.0583
     24 H           9.0290    2.0611    1.5136 H       1  UNL1        0.0583
     25 H           9.2720    4.3734    2.2879 H       1  UNL1        0.0583
     26 H           9.2720    4.9283    0.6310 H       1  UNL1        0.0583
     27 H          11.3781    5.2935    2.5960 H       1  UNL1        0.0575
     28 H          11.3781    5.8483    0.9391 H       1  UNL1        0.0575
     29 H          13.3895    4.5208    0.4946 H       1  UNL1        0.0484
     30 H          13.3895    3.9660    2.1515 H       1  UNL1        0.0484
     31 H          13.3738    6.7911    2.1761 H       1  UNL1        0.1485
     32 H          15.8520    5.1352    1.6216 H       1  UNL1        0.1251
@<TRIPOS>BOND
     1     1     2    2
     2     2     3    1
     3     3     4    1
     4     4     5    1
     5     5     6    1
     6     6     7    1
     7     7     8    1
     8     8     9    1
     9     9    10    1
    10    10    11    1
    11    11    12    1
    12    12    13    1
    13    13    14   am
    14    14    15    2
    15     2    16    1
    16     3    17    1
    17     3    18    1
    18     5    19    1
    19     5    20    1
    20     6    21    1
    21     6    22    1
    22     8    23    1
    23     8    24    1
    24     9    25    1
    25     9    26    1
    26    11    27    1
    27    11    28    1
    28    12    29    1
    29    12    30    1
    30    13    31    1
    31    14    32    1
