@<TRIPOS>MOLECULE
*****
 28 28 0 0 0
SMALL
GASTEIGER

@<TRIPOS>ATOM
      1 C           1.0416    0.0878   -0.0235 C.1     1  UNL1       -0.1192
      2 C           2.3455    0.0878   -0.0235 C.1     1  UNL1       -0.1056
      3 C           3.8655    0.0878   -0.0235 C.3     1  UNL1        0.0089
      4 C           4.3722    1.4424   -0.4914 C.3     1  UNL1       -0.0421
      5 C           5.8922    1.4424   -0.4914 C.3     1  UNL1       -0.0505
      6 C           6.3988    2.7969   -0.9593 C.3     1  UNL1       -0.0333
      7 C           7.9188    2.7969   -0.9593 C.3     1  UNL1        0.0432
      8 N           8.4088    4.1069   -1.4118 N.ar    1  UNL1       -0.2515
      9 C           9.7782    4.3474   -1.4949 C.ar    1  UNL1        0.0484
     10 C          10.2583    5.6309   -1.9383 C.ar    1  UNL1        0.0798
     11 C           9.2705    6.7229   -2.3155 C.3     1  UNL1       -0.0191
     12 N          11.6276    5.8714   -2.0214 N.ar    1  UNL1       -0.1348
     13 N           7.5345    5.0735   -1.7457 N.ar    1  UNL1       -0.0655
     14 H           0.0476    0.0878   -0.0235 H       1  UNL1        0.1228
     15 H           4.2222   -0.6742   -0.6846 H       1  UNL1        0.0397
     16 H           4.2222   -0.1037    0.9670 H       1  UNL1        0.0397
     17 H           4.0155    2.2044    0.1697 H       1  UNL1        0.0274
     18 H           4.0155    1.6339   -1.4819 H       1  UNL1        0.0274
     19 H           6.2488    0.6803   -1.1525 H       1  UNL1        0.0266
     20 H           6.2488    1.2508    0.4991 H       1  UNL1        0.0266
     21 H           6.0422    3.5589   -0.2982 H       1  UNL1        0.0283
     22 H           6.0422    2.9884   -1.9498 H       1  UNL1        0.0283
     23 H           8.2755    2.0349   -1.6204 H       1  UNL1        0.0509
     24 H           8.2755    2.6054    0.0312 H       1  UNL1        0.0509
     25 H          10.4488    3.6060   -1.2388 H       1  UNL1        0.0845
     26 H           8.2720    6.3595   -2.1900 H       1  UNL1        0.0294
     27 H           9.4221    7.0037   -3.3368 H       1  UNL1        0.0294
     28 H           9.4221    7.5742   -1.6852 H       1  UNL1        0.0294
@<TRIPOS>BOND
     1     1     2    3
     2     2     3    1
     3     3     4    1
     4     4     5    1
     5     5     6    1
     6     6     7    1
     7     7     8    1
     8     8     9   ar
     9     9    10   ar
    10    10    11    1
    11    10    12   ar
    12    12    13   ar
    13     8    13   ar
    14     1    14    1
    15     3    15    1
    16     3    16    1
    17     4    17    1
    18     4    18    1
    19     5    19    1
    20     5    20    1
    21     6    21    1
    22     6    22    1
    23     7    23    1
    24     7    24    1
    25     9    25    1
    26    11    26    1
    27    11    27    1
    28    11    28    1
