@<TRIPOS>MOLECULE
*****
 26 25 0 0 0
SMALL
GASTEIGER

@<TRIPOS>ATOM
      1 C           1.0487   -0.0386    0.0783 C.3     1  UNL1       -0.0416
      2 C           2.5687   -0.0386    0.0783 C.3     1  UNL1        0.0449
      3 O           3.0420    0.8849   -0.8910 O.3     1  UNL1       -0.3778
      4 C           4.4620    0.8849   -0.8910 C.3     1  UNL1        0.0710
      5 C           4.9687    1.8734   -1.9285 C.3     1  UNL1        0.0710
      6 O           6.3887    1.8734   -1.9285 O.3     1  UNL1       -0.3770
      7 C           6.8620    2.7969   -2.8978 C.3     1  UNL1        0.0560
      8 C           8.3820    2.7969   -2.8978 C.3     1  UNL1        0.0471
      9 C           8.8887    3.7854   -3.9354 C.2     1  UNL1        0.2127
     10 N           7.9334    4.5561   -4.7443 N.am    1  UNL1       -0.3293
     11 O          10.1382    3.9456   -4.1035 O.2     1  UNL1       -0.2760
     12 H           0.6921   -0.7345    0.8087 H       1  UNL1        0.0252
     13 H           0.6920   -0.3232   -0.8895 H       1  UNL1        0.0252
     14 H           0.6920    0.9419    0.3158 H       1  UNL1        0.0252
     15 H           2.9254   -1.0191   -0.1591 H       1  UNL1        0.0557
     16 H           2.9254    0.2460    1.0462 H       1  UNL1        0.0557
     17 H           4.8187   -0.0956   -1.1284 H       1  UNL1        0.0583
     18 H           4.8187    1.1695    0.0769 H       1  UNL1        0.0583
     19 H           4.6120    2.8539   -1.6911 H       1  UNL1        0.0583
     20 H           4.6120    1.5888   -2.8963 H       1  UNL1        0.0583
     21 H           6.5054    3.7774   -2.6604 H       1  UNL1        0.0564
     22 H           6.5054    2.5123   -3.8656 H       1  UNL1        0.0564
     23 H           8.7387    1.8164   -3.1353 H       1  UNL1        0.0381
     24 H           8.7387    3.0815   -1.9300 H       1  UNL1        0.0381
     25 H           6.9655    4.4320   -4.6141 H       1  UNL1        0.1449
     26 H           8.2616    5.1964   -5.4163 H       1  UNL1        0.1449
@<TRIPOS>BOND
     1     1     2    1
     2     2     3    1
     3     3     4    1
     4     4     5    1
     5     5     6    1
     6     6     7    1
     7     7     8    1
     8     8     9    1
     9     9    10   am
    10     9    11    2
    11     1    12    1
    12     1    13    1
    13     1    14    1
    14     2    15    1
    15     2    16    1
    16     4    17    1
    17     4    18    1
    18     5    19    1
    19     5    20    1
    20     7    21    1
    21     7    22    1
    22     8    23    1
    23     8    24    1
    24    10    25    1
    25    10    26    1
