@<TRIPOS>MOLECULE
*****
 23 22 0 0 0
SMALL
GASTEIGER

@<TRIPOS>ATOM
      1 C           1.0633   -0.0770   -0.0079 C.3     1  UNL1        0.0365
      2 O           2.4833   -0.0770   -0.0079 O.3     1  UNL1       -0.3807
      3 C           2.9566    1.0816   -0.6786 C.3     1  UNL1        0.0706
      4 C           4.4766    1.0816   -0.6786 C.3     1  UNL1        0.0711
      5 O           4.9500    2.2403   -1.3494 O.3     1  UNL1       -0.3752
      6 C           6.3700    2.2403   -1.3494 C.3     1  UNL1        0.0711
      7 C           6.8766    3.4805   -2.0673 C.3     1  UNL1        0.0706
      8 O           8.2966    3.4805   -2.0673 O.3     1  UNL1       -0.3807
      9 C           8.7700    4.6392   -2.7381 C.3     1  UNL1        0.0365
     10 H           0.7067   -0.9501    0.4976 H       1  UNL1        0.0524
     11 H           0.7066   -0.0782   -1.0167 H       1  UNL1        0.0524
     12 H           0.7066    0.7972    0.4955 H       1  UNL1        0.0524
     13 H           2.6000    1.9559   -0.1752 H       1  UNL1        0.0582
     14 H           2.6000    1.0805   -1.6874 H       1  UNL1        0.0582
     15 H           4.8333    0.2074   -1.1820 H       1  UNL1        0.0583
     16 H           4.8333    1.0828    0.3302 H       1  UNL1        0.0583
     17 H           6.7266    1.3660   -1.8527 H       1  UNL1        0.0583
     18 H           6.7266    2.2415   -0.3406 H       1  UNL1        0.0583
     19 H           6.5200    4.3548   -1.5640 H       1  UNL1        0.0582
     20 H           6.5200    3.4793   -3.0761 H       1  UNL1        0.0582
     21 H           9.8400    4.6392   -2.7381 H       1  UNL1        0.0524
     22 H           8.4133    5.5134   -2.2347 H       1  UNL1        0.0524
     23 H           8.4133    4.6380   -3.7469 H       1  UNL1        0.0524
@<TRIPOS>BOND
     1     1     2    1
     2     2     3    1
     3     3     4    1
     4     4     5    1
     5     5     6    1
     6     6     7    1
     7     7     8    1
     8     8     9    1
     9     1    10    1
    10     1    11    1
    11     1    12    1
    12     3    13    1
    13     3    14    1
    14     4    15    1
    15     4    16    1
    16     6    17    1
    17     6    18    1
    18     7    19    1
    19     7    20    1
    20     9    21    1
    21     9    22    1
    22     9    23    1
