@<TRIPOS>MOLECULE
*****
 32 31 0 0 0
SMALL
GASTEIGER

@<TRIPOS>ATOM
      1 C           1.0669    0.0370   -0.0644 C.3     1  UNL1       -0.0653
      2 C           2.5869    0.0370   -0.0644 C.3     1  UNL1       -0.0559
      3 C           3.0936   -0.2489   -1.4687 C.3     1  UNL1       -0.0533
      4 C           4.6136   -0.2489   -1.4687 C.3     1  UNL1       -0.0531
      5 C           5.1202   -0.5348   -2.8730 C.3     1  UNL1       -0.0531
      6 C           6.6402   -0.5348   -2.8730 C.3     1  UNL1       -0.0531
      7 C           7.1469   -0.8206   -4.2772 C.3     1  UNL1       -0.0531
      8 C           8.6669   -0.8206   -4.2772 C.3     1  UNL1       -0.0533
      9 C           9.1736   -1.1065   -5.6815 C.3     1  UNL1       -0.0559
     10 C          10.6936   -1.1065   -5.6815 C.3     1  UNL1       -0.0653
     11 H           0.7103    0.2383    0.9241 H       1  UNL1        0.0230
     12 H           0.7102   -0.9197   -0.3844 H       1  UNL1        0.0230
     13 H           0.7102    0.7925   -0.7330 H       1  UNL1        0.0230
     14 H           2.9436   -0.7185    0.6041 H       1  UNL1        0.0263
     15 H           2.9436    0.9937    0.2555 H       1  UNL1        0.0263
     16 H           2.7369    0.5066   -2.1373 H       1  UNL1        0.0265
     17 H           2.7369   -1.2056   -1.7887 H       1  UNL1        0.0265
     18 H           4.9702   -1.0043   -0.8002 H       1  UNL1        0.0265
     19 H           4.9702    0.7078   -1.1487 H       1  UNL1        0.0265
     20 H           4.7636    0.2207   -3.5415 H       1  UNL1        0.0265
     21 H           4.7636   -1.4915   -3.1930 H       1  UNL1        0.0265
     22 H           6.9969   -1.2902   -2.2044 H       1  UNL1        0.0265
     23 H           6.9969    0.4220   -2.5530 H       1  UNL1        0.0265
     24 H           6.7902   -0.0652   -4.9458 H       1  UNL1        0.0265
     25 H           6.7902   -1.7774   -4.5972 H       1  UNL1        0.0265
     26 H           9.0236   -1.5761   -3.6087 H       1  UNL1        0.0265
     27 H           9.0236    0.1361   -3.9573 H       1  UNL1        0.0265
     28 H           8.8169   -0.3511   -6.3501 H       1  UNL1        0.0263
     29 H           8.8169   -2.0632   -6.0015 H       1  UNL1        0.0263
     30 H          11.0502   -0.1498   -5.3615 H       1  UNL1        0.0230
     31 H          11.0502   -1.3078   -6.6700 H       1  UNL1        0.0230
     32 H          11.0502   -1.8620   -5.0130 H       1  UNL1        0.0230
@<TRIPOS>BOND
     1     1     2    1
     2     2     3    1
     3     3     4    1
     4     4     5    1
     5     5     6    1
     6     6     7    1
     7     7     8    1
     8     8     9    1
     9     9    10    1
    10     1    11    1
    11     1    12    1
    12     1    13    1
    13     2    14    1
    14     2    15    1
    15     3    16    1
    16     3    17    1
    17     4    18    1
    18     4    19    1
    19     5    20    1
    20     5    21    1
    21     6    22    1
    22     6    23    1
    23     7    24    1
    24     7    25    1
    25     8    26    1
    26     8    27    1
    27     9    28    1
    28     9    29    1
    29    10    30    1
    30    10    31    1
    31    10    32    1
