@<TRIPOS>MOLECULE
*****
 26 25 0 0 0
SMALL
GASTEIGER

@<TRIPOS>ATOM
      1 C           0.9862   -0.0674    0.0725 C.3     1  UNL1       -0.0416
      2 C           2.5062   -0.0674    0.0725 C.3     1  UNL1        0.0449
      3 O           2.9795   -0.1710   -1.2622 O.3     1  UNL1       -0.3778
      4 C           4.3995   -0.1710   -1.2622 C.3     1  UNL1        0.0710
      5 C           4.9062   -0.2819   -2.6910 C.3     1  UNL1        0.0711
      6 O           6.3262   -0.2819   -2.6910 O.3     1  UNL1       -0.3752
      7 C           6.7995   -0.3854   -4.0258 C.3     1  UNL1        0.0711
      8 C           8.3195   -0.3854   -4.0258 C.3     1  UNL1        0.0706
      9 O           8.7928   -0.4890   -5.3606 O.3     1  UNL1       -0.3807
     10 C          10.2128   -0.4890   -5.3606 C.3     1  UNL1        0.0365
     11 H           0.6295    0.0106    1.0783 H       1  UNL1        0.0252
     12 H           0.6295   -0.9775   -0.3628 H       1  UNL1        0.0252
     13 H           0.6295    0.7646   -0.4979 H       1  UNL1        0.0252
     14 H           2.8628   -0.8995    0.6430 H       1  UNL1        0.0557
     15 H           2.8629    0.8426    0.5078 H       1  UNL1        0.0557
     16 H           4.7562   -1.0030   -0.6918 H       1  UNL1        0.0583
     17 H           4.7562    0.7390   -0.8269 H       1  UNL1        0.0583
     18 H           4.5495    0.5502   -3.2615 H       1  UNL1        0.0583
     19 H           4.5495   -1.1919   -3.1263 H       1  UNL1        0.0583
     20 H           6.4428    0.4466   -4.5963 H       1  UNL1        0.0583
     21 H           6.4428   -1.2955   -4.4611 H       1  UNL1        0.0583
     22 H           8.6762   -1.2174   -3.4553 H       1  UNL1        0.0582
     23 H           8.6762    0.5246   -3.5905 H       1  UNL1        0.0582
     24 H          10.5695   -0.5670   -6.3664 H       1  UNL1        0.0524
     25 H          10.5695   -1.3210   -4.7901 H       1  UNL1        0.0524
     26 H          10.5695    0.4211   -4.9253 H       1  UNL1        0.0524
@<TRIPOS>BOND
     1     1     2    1
     2     2     3    1
     3     3     4    1
     4     4     5    1
     5     5     6    1
     6     6     7    1
     7     7     8    1
     8     8     9    1
     9     9    10    1
    10     1    11    1
    11     1    12    1
    12     1    13    1
    13     2    14    1
    14     2    15    1
    15     4    16    1
    16     4    17    1
    17     5    18    1
    18     5    19    1
    19     7    20    1
    20     7    21    1
    21     8    22    1
    22     8    23    1
    23    10    24    1
    24    10    25    1
    25    10    26    1
