@<TRIPOS>MOLECULE
*****
 44 43 0 0 0
SMALL
GASTEIGER

@<TRIPOS>ATOM
      1 C           1.0323   -0.0140   -0.0936 C.3     1  UNL1       -0.0653
      2 C           2.5523   -0.0140   -0.0936 C.3     1  UNL1       -0.0559
      3 C           3.0589    1.2102    0.6514 C.3     1  UNL1       -0.0533
      4 C           4.5789    1.2102    0.6514 C.3     1  UNL1       -0.0531
      5 C           5.0856    2.4344    1.3965 C.3     1  UNL1       -0.0531
      6 C           6.6056    2.4344    1.3965 C.3     1  UNL1       -0.0531
      7 C           7.1123    3.6586    2.1415 C.3     1  UNL1       -0.0530
      8 C           8.6323    3.6586    2.1415 C.3     1  UNL1       -0.0516
      9 C           9.1389    4.8827    2.8866 C.3     1  UNL1       -0.0374
     10 C          10.6589    4.8827    2.8866 C.3     1  UNL1        0.0116
     11 N          11.1489    6.0666    3.6071 N.am    1  UNL1       -0.3153
     12 C          12.5942    6.2961    3.7468 C.2     1  UNL1        0.2134
     13 O          13.4200    5.4709    3.2446 O.2     1  UNL1       -0.2758
     14 C          13.1008    7.5203    4.4918 C.3     1  UNL1        0.0303
     15 C          14.6208    7.5203    4.4918 C.3     1  UNL1        0.0110
     16 C          15.1275    8.7445    5.2369 C.2     1  UNL1        0.1208
     17 O          16.3770    8.9428    5.3576 O.2     1  UNL1       -0.3010
     18 H           0.6756   -0.8757   -0.6181 H       1  UNL1        0.0230
     19 H           0.6756    0.8711   -0.5777 H       1  UNL1        0.0230
     20 H           0.6756   -0.0373    0.9149 H       1  UNL1        0.0230
     21 H           2.9089    0.0094   -1.1022 H       1  UNL1        0.0263
     22 H           2.9089   -0.8990    0.3904 H       1  UNL1        0.0263
     23 H           2.7023    1.1869    1.6600 H       1  UNL1        0.0265
     24 H           2.7023    2.0953    0.1674 H       1  UNL1        0.0265
     25 H           4.9356    1.2336   -0.3571 H       1  UNL1        0.0265
     26 H           4.9356    0.3251    1.1355 H       1  UNL1        0.0265
     27 H           4.7289    2.4111    2.4050 H       1  UNL1        0.0265
     28 H           4.7289    3.3195    0.9124 H       1  UNL1        0.0265
     29 H           6.9623    2.4577    0.3879 H       1  UNL1        0.0265
     30 H           6.9623    1.5493    1.8805 H       1  UNL1        0.0265
     31 H           6.7556    3.6352    3.1501 H       1  UNL1        0.0265
     32 H           6.7556    4.5436    1.6575 H       1  UNL1        0.0265
     33 H           8.9889    3.6819    1.1330 H       1  UNL1        0.0266
     34 H           8.9889    2.7735    2.6256 H       1  UNL1        0.0266
     35 H           8.7822    4.8594    3.8951 H       1  UNL1        0.0280
     36 H           8.7822    5.7678    2.4025 H       1  UNL1        0.0280
     37 H          11.0156    4.9061    1.8780 H       1  UNL1        0.0462
     38 H          11.0156    3.9977    3.3706 H       1  UNL1        0.0462
     39 H          10.5092    6.7059    3.9961 H       1  UNL1        0.1487
     40 H          12.7442    7.4969    5.5003 H       1  UNL1        0.0362
     41 H          12.7442    8.4054    4.0077 H       1  UNL1        0.0362
     42 H          14.9775    7.5436    3.4833 H       1  UNL1        0.0343
     43 H          14.9775    6.6352    4.9759 H       1  UNL1        0.0343
     44 H          14.4569    9.4145    5.6447 H       1  UNL1        0.1026
@<TRIPOS>BOND
     1     1     2    1
     2     2     3    1
     3     3     4    1
     4     4     5    1
     5     5     6    1
     6     6     7    1
     7     7     8    1
     8     8     9    1
     9     9    10    1
    10    10    11    1
    11    11    12   am
    12    12    13    2
    13    12    14    1
    14    14    15    1
    15    15    16    1
    16    16    17    2
    17     1    18    1
    18     1    19    1
    19     1    20    1
    20     2    21    1
    21     2    22    1
    22     3    23    1
    23     3    24    1
    24     4    25    1
    25     4    26    1
    26     5    27    1
    27     5    28    1
    28     6    29    1
    29     6    30    1
    30     7    31    1
    31     7    32    1
    32     8    33    1
    33     8    34    1
    34     9    35    1
    35     9    36    1
    36    10    37    1
    37    10    38    1
    38    11    39    1
    39    14    40    1
    40    14    41    1
    41    15    42    1
    42    15    43    1
    43    16    44    1
