@<TRIPOS>MOLECULE
*****
 36 37 0 0 0
SMALL
GASTEIGER

@<TRIPOS>ATOM
      1 C           1.0872    0.0272   -0.0407 C.1     1  UNL1       -0.1139
      2 C           2.3911    0.0272   -0.0407 C.1     1  UNL1       -0.0681
      3 C           3.9111    0.0272   -0.0407 C.ar    1  UNL1        0.0429
      4 C           4.6312   -0.3998   -1.2126 C.ar    1  UNL1       -0.0416
      5 C           6.0714   -0.3998   -1.2126 C.ar    1  UNL1       -0.0205
      6 C           6.7915   -0.8267   -2.3845 C.ar    1  UNL1        0.1214
      7 N           6.0565   -1.2625   -3.5807 N.pl3   1  UNL1       -0.3127
      8 C           4.5865   -1.2625   -3.5807 C.3     1  UNL1        0.0263
      9 C           4.0798   -1.7530   -4.9272 C.3     1  UNL1        0.0147
     10 N           2.6098   -1.7530   -4.9272 N.3     1  UNL1       -0.2994
     11 C           2.1198   -0.3881   -4.6869 C.3     1  UNL1       -0.0012
     12 C           2.6265    0.1025   -3.3404 C.3     1  UNL1       -0.0431
     13 C           2.1198    1.5138   -3.0920 C.3     1  UNL1       -0.0641
     14 C           2.1198   -2.2274   -6.2294 C.3     1  UNL1        0.0147
     15 C           6.7915   -1.6982   -4.7768 C.3     1  UNL1        0.0263
     16 N           8.1843   -0.8267   -2.3845 N.ar    1  UNL1       -0.2391
     17 C           4.6312    0.4541    1.1312 C.ar    1  UNL1        0.0450
     18 H           0.0932    0.0272   -0.0407 H       1  UNL1        0.1232
     19 H           4.1152   -0.7057   -2.0524 H       1  UNL1        0.0631
     20 H           6.5874   -0.0938   -0.3729 H       1  UNL1        0.0652
     21 H           4.2298   -0.2689   -3.4058 H       1  UNL1        0.0477
     22 H           4.2298   -1.9107   -2.8077 H       1  UNL1        0.0477
     23 H           4.4365   -2.7465   -5.1021 H       1  UNL1        0.0442
     24 H           4.4365   -1.1048   -5.7002 H       1  UNL1        0.0442
     25 H           1.0498   -0.3881   -4.6869 H       1  UNL1        0.0426
     26 H           2.4765    0.2602   -5.4599 H       1  UNL1        0.0426
     27 H           3.6965    0.1025   -3.3404 H       1  UNL1        0.0275
     28 H           2.2698   -0.5457   -2.5675 H       1  UNL1        0.0275
     29 H           2.4765    2.1621   -3.8650 H       1  UNL1        0.0230
     30 H           2.4764    1.8592   -2.1441 H       1  UNL1        0.0230
     31 H           1.0498    1.5138   -3.0920 H       1  UNL1        0.0230
     32 H           1.6786   -1.5545   -6.9347 H       1  UNL1        0.0442
     33 H           1.4849   -3.0000   -6.6101 H       1  UNL1        0.0442
     34 H           7.3688   -0.9526   -5.2824 H       1  UNL1        0.0477
     35 H           7.5576   -2.4441   -4.8156 H       1  UNL1        0.0477
     36 H           4.5097    0.8049    2.0941 H       1  UNL1        0.0843
@<TRIPOS>BOND
     1     1     2    3
     2     2     3    1
     3     3     4   ar
     4     4     5   ar
     5     5     6   ar
     6     6     7    1
     7     7     8    1
     8     8     9    1
     9     9    10    1
    10    10    11    1
    11    11    12    1
    12    12    13    1
    13    10    14    1
    14    14    15    1
    15     7    15    1
    16     6    16   ar
    17    16    17   ar
    18     3    17   ar
    19     1    18    1
    20     4    19    1
    21     5    20    1
    22     8    21    1
    23     8    22    1
    24     9    23    1
    25     9    24    1
    26    11    25    1
    27    11    26    1
    28    12    27    1
    29    12    28    1
    30    13    29    1
    31    13    30    1
    32    13    31    1
    33    14    32    1
    34    14    33    1
    35    15    34    1
    36    15    35    1
    37    17    36    1
