@<TRIPOS>MOLECULE
*****
 36 37 0 0 0
SMALL
GASTEIGER

@<TRIPOS>ATOM
      1 N           1.0608   -0.0170    0.0776 N.am    1  UNL1       -0.3293
      2 C           2.5308   -0.0170    0.0776 C.2     1  UNL1        0.2105
      3 O           3.1662    0.7684    0.8487 O.2     1  UNL1       -0.2760
      4 C           3.2908   -0.9563   -0.8446 C.3     1  UNL1        0.0241
      5 C           4.7852   -0.7581   -0.6501 C.3     1  UNL1       -0.0393
      6 C           5.5452   -1.6974   -1.5723 C.3     1  UNL1       -0.0067
      7 C           7.0396   -1.4992   -1.3777 C.ar    1  UNL1        0.0833
      8 C           7.9755   -2.2803   -2.1446 C.ar    1  UNL1        0.0544
      9 N           9.3448   -2.0986   -1.9663 N.ar    1  UNL1       -0.2198
     10 C           9.8348   -1.1097   -0.9953 C.ar    1  UNL1        0.0670
     11 C           8.8989   -0.3286   -0.2284 C.ar    1  UNL1       -0.0359
     12 C           9.3790    0.6403    0.7229 C.ar    1  UNL1       -0.0562
     13 C           8.4431    1.4214    1.4898 C.ar    1  UNL1       -0.0404
     14 C           6.9487    1.2232    1.2952 C.3     1  UNL1        0.0280
     15 C           6.7124    0.1518    0.2433 C.2     1  UNL1        0.1246
     16 O           5.5264   -0.1741   -0.0767 O.2     1  UNL1       -0.3007
     17 C           8.9232    2.3902    2.4411 C.ar    1  UNL1       -0.0562
     18 C          11.2508   -0.9219   -0.8109 C.ar    1  UNL1       -0.0359
     19 N          10.2191   -2.8284   -2.6828 N.ar    1  UNL1       -0.0605
     20 N           7.5038   -0.5621   -0.4577 N.ar    1  UNL1       -0.1342
     21 H           0.5685    0.5914    0.6749 H       1  UNL1        0.1449
     22 H           0.5685   -0.6253   -0.5197 H       1  UNL1        0.1449
     23 H           3.0323   -0.7445   -1.8611 H       1  UNL1        0.0358
     24 H           3.0323   -1.9687   -0.6144 H       1  UNL1        0.0358
     25 H           5.0437   -0.9698    0.3664 H       1  UNL1        0.0273
     26 H           5.0437    0.2544   -0.8803 H       1  UNL1        0.0273
     27 H           5.2867   -1.4856   -2.5888 H       1  UNL1        0.0329
     28 H           5.2867   -2.7098   -1.3420 H       1  UNL1        0.0329
     29 H           7.6315   -2.9745   -2.8263 H       1  UNL1        0.0850
     30 H           7.8843   -0.4632   -0.3605 H       1  UNL1        0.0639
     31 H          10.3936    0.7748    0.8550 H       1  UNL1        0.0621
     32 H           6.5059    2.1426    0.9736 H       1  UNL1        0.0387
     33 H           6.5059    0.9184    2.2204 H       1  UNL1        0.0387
     34 H           7.5151   -0.3111   -0.2112 H       1  UNL1        0.1030
     35 H           8.8587    3.1252    3.1627 H       1  UNL1        0.0621
     36 H          12.1750   -1.2496   -1.1327 H       1  UNL1        0.0639
@<TRIPOS>BOND
     1     1     2   am
     2     2     3    2
     3     2     4    1
     4     4     5    1
     5     5     6    1
     6     6     7    1
     7     7     8   ar
     8     8     9   ar
     9     9    10    1
    10    10    11   ar
    11    11    12   ar
    12    12    13   ar
    13    13    14    1
    14    14    15    1
    15    15    16    2
    16    13    17   ar
    17    17    18   ar
    18    10    18   ar
    19     9    19   ar
    20    19    20   ar
    21     7    20   ar
    22     1    21    1
    23     1    22    1
    24     4    23    1
    25     4    24    1
    26     5    25    1
    27     5    26    1
    28     6    27    1
    29     6    28    1
    30     8    29    1
    31    11    30    1
    32    12    31    1
    33    14    32    1
    34    14    33    1
    35    15    34    1
    36    17    35    1
    37    18    36    1
