@<TRIPOS>MOLECULE
*****
 33 33 0 0 0
SMALL
GASTEIGER

@<TRIPOS>ATOM
      1 C           0.9816    0.0765   -0.0618 C.3     1  UNL1       -0.0653
      2 C           2.5016    0.0765   -0.0618 C.3     1  UNL1       -0.0555
      3 C           3.0083    1.3782   -0.6611 C.3     1  UNL1       -0.0450
      4 C           4.5283    1.3782   -0.6611 C.3     1  UNL1        0.0241
      5 C           5.0350    2.6799   -1.2605 C.2     1  UNL1        0.2156
      6 O           4.2091    3.5574   -1.6645 O.2     1  UNL1       -0.2756
      7 N           6.4802    2.9239   -1.3728 N.am    1  UNL1       -0.2990
      8 C           6.9702    4.1828   -1.9524 C.3     1  UNL1        0.0275
      9 C           8.4902    4.1828   -1.9524 C.3     1  UNL1        0.0145
     10 N           8.9802    5.4417   -2.5321 N.3     1  UNL1       -0.3024
     11 C           8.4902    6.5731   -1.7316 C.3     1  UNL1       -0.0126
     12 C          10.4502    5.4417   -2.5321 C.3     1  UNL1        0.0145
     13 C           7.4355    1.9090   -0.9055 C.3     1  UNL1        0.0275
     14 H           0.6250   -0.8399    0.3601 H       1  UNL1        0.0230
     15 H           0.6250    0.1693   -1.0663 H       1  UNL1        0.0230
     16 H           0.6250    0.9000    0.5209 H       1  UNL1        0.0230
     17 H           2.8583   -0.7471   -0.6444 H       1  UNL1        0.0263
     18 H           2.8583   -0.0163    0.9428 H       1  UNL1        0.0263
     19 H           2.6516    2.2017   -0.0785 H       1  UNL1        0.0270
     20 H           2.6516    1.4710   -1.6656 H       1  UNL1        0.0270
     21 H           4.8850    0.5546   -1.2437 H       1  UNL1        0.0358
     22 H           4.8850    1.2854    0.3434 H       1  UNL1        0.0358
     23 H           6.6135    5.0064   -1.3698 H       1  UNL1        0.0477
     24 H           6.6135    4.2756   -2.9570 H       1  UNL1        0.0477
     25 H           8.8469    3.3593   -2.5351 H       1  UNL1        0.0442
     26 H           8.8469    4.0900   -0.9479 H       1  UNL1        0.0442
     27 H           7.4202    6.5731   -1.7316 H       1  UNL1        0.0391
     28 H           8.8469    7.4895   -2.1535 H       1  UNL1        0.0391
     29 H           8.8469    6.4803   -0.7271 H       1  UNL1        0.0391
     30 H          11.0049    6.0540   -1.8522 H       1  UNL1        0.0442
     31 H          11.2484    5.5480   -3.2367 H       1  UNL1        0.0442
     32 H           7.4503    1.7134    0.1464 H       1  UNL1        0.0477
     33 H           7.4551    0.8770   -1.1873 H       1  UNL1        0.0477
@<TRIPOS>BOND
     1     1     2    1
     2     2     3    1
     3     3     4    1
     4     4     5    1
     5     5     6    2
     6     5     7   am
     7     7     8    1
     8     8     9    1
     9     9    10    1
    10    10    11    1
    11    10    12    1
    12    12    13    1
    13     7    13    1
    14     1    14    1
    15     1    15    1
    16     1    16    1
    17     2    17    1
    18     2    18    1
    19     3    19    1
    20     3    20    1
    21     4    21    1
    22     4    22    1
    23     8    23    1
    24     8    24    1
    25     9    25    1
    26     9    26    1
    27    11    27    1
    28    11    28    1
    29    11    29    1
    30    12    30    1
    31    12    31    1
    32    13    32    1
    33    13    33    1
