@<TRIPOS>MOLECULE
*****
 17 16 0 0 0
SMALL
GASTEIGER

@<TRIPOS>ATOM
      1 C           1.0392    0.0205   -0.0897 C.3     1  UNL1       -0.0495
      2 C           2.5592    0.0205   -0.0897 C.3     1  UNL1        0.0088
      3 N           3.0492    1.0875    0.7948 N.am    1  UNL1       -0.3152
      4 C           4.4944    1.2943    0.9663 C.2     1  UNL1        0.2199
      5 O           5.3203    0.5506    0.3498 O.2     1  UNL1       -0.2754
      6 C           5.0011    2.3975    1.8809 C.3     1  UNL1        0.0793
      7 C           6.5211    2.3975    1.8809 C.2     1  UNL1        0.1290
      8 O           7.1565    3.2448    2.5833 O.2     1  UNL1       -0.3005
      9 H           0.6825   -0.7561   -0.7335 H       1  UNL1        0.0245
     10 H           0.6825    0.9664   -0.4404 H       1  UNL1        0.0245
     11 H           0.6825   -0.1488    0.9048 H       1  UNL1        0.0245
     12 H           2.9158    0.1898   -1.0842 H       1  UNL1        0.0459
     13 H           2.9159   -0.9254    0.2610 H       1  UNL1        0.0459
     14 H           2.4094    1.6635    1.2724 H       1  UNL1        0.1487
     15 H           4.6444    2.2283    2.8754 H       1  UNL1        0.0433
     16 H           4.6444    3.3434    1.5302 H       1  UNL1        0.0433
     17 H           7.0371    1.7095    1.3105 H       1  UNL1        0.1031
@<TRIPOS>BOND
     1     1     2    1
     2     2     3    1
     3     3     4   am
     4     4     5    2
     5     4     6    1
     6     6     7    1
     7     7     8    2
     8     1     9    1
     9     1    10    1
    10     1    11    1
    11     2    12    1
    12     2    13    1
    13     3    14    1
    14     6    15    1
    15     6    16    1
    16     7    17    1
