@<TRIPOS>MOLECULE
*****
 33 34 0 0 0
SMALL
GASTEIGER

@<TRIPOS>ATOM
      1 C           0.9371    0.0769   -0.0114 C.1     1  UNL1       -0.1139
      2 C           2.2410    0.0769   -0.0114 C.1     1  UNL1       -0.0681
      3 C           3.7610    0.0769   -0.0114 C.ar    1  UNL1        0.0429
      4 C           4.4811    0.9971   -0.8534 C.ar    1  UNL1       -0.0416
      5 C           5.9213    0.9971   -0.8534 C.ar    1  UNL1       -0.0205
      6 C           6.6414    1.9173   -1.6953 C.ar    1  UNL1        0.1214
      7 N           5.9064    2.8566   -2.5547 N.pl3   1  UNL1       -0.3127
      8 C           4.4364    2.8566   -2.5547 C.3     1  UNL1        0.0263
      9 C           3.9297    3.9139   -3.5220 C.3     1  UNL1        0.0147
     10 N           2.4597    3.9139   -3.5220 N.3     1  UNL1       -0.2996
     11 C           1.9697    4.2128   -2.1687 C.3     1  UNL1       -0.0038
     12 C           2.4764    3.1555   -1.2014 C.3     1  UNL1       -0.0524
     13 C           1.9697    4.9364   -4.4576 C.3     1  UNL1        0.0147
     14 C           6.6414    3.7958   -3.4140 C.3     1  UNL1        0.0263
     15 N           8.0342    1.9173   -1.6953 N.ar    1  UNL1       -0.2391
     16 C           4.4811   -0.8433    0.8305 C.ar    1  UNL1        0.0450
     17 H          -0.0569    0.0769   -0.0114 H       1  UNL1        0.1232
     18 H           3.9651    1.6565   -1.4567 H       1  UNL1        0.0631
     19 H           6.4373    0.3377   -0.2501 H       1  UNL1        0.0652
     20 H           4.0797    3.0742   -1.5696 H       1  UNL1        0.0477
     21 H           4.0797    1.8947   -2.8587 H       1  UNL1        0.0477
     22 H           4.2864    3.6963   -4.5071 H       1  UNL1        0.0442
     23 H           4.2864    4.8757   -3.2180 H       1  UNL1        0.0442
     24 H           0.8997    4.2128   -2.1687 H       1  UNL1        0.0424
     25 H           2.3264    5.1747   -1.8646 H       1  UNL1        0.0424
     26 H           2.1197    2.1936   -1.5055 H       1  UNL1        0.0242
     27 H           2.1197    3.3731   -0.2163 H       1  UNL1        0.0242
     28 H           3.5464    3.1555   -1.2014 H       1  UNL1        0.0242
     29 H           1.5285    5.8451   -4.1049 H       1  UNL1        0.0442
     30 H           1.3348    4.9933   -5.3170 H       1  UNL1        0.0442
     31 H           7.2187    4.5477   -2.9178 H       1  UNL1        0.0477
     32 H           7.4075    3.5469   -4.1182 H       1  UNL1        0.0477
     33 H           4.3596   -1.5994    1.5223 H       1  UNL1        0.0843
@<TRIPOS>BOND
     1     1     2    3
     2     2     3    1
     3     3     4   ar
     4     4     5   ar
     5     5     6   ar
     6     6     7    1
     7     7     8    1
     8     8     9    1
     9     9    10    1
    10    10    11    1
    11    11    12    1
    12    10    13    1
    13    13    14    1
    14     7    14    1
    15     6    15   ar
    16    15    16   ar
    17     3    16   ar
    18     1    17    1
    19     4    18    1
    20     5    19    1
    21     8    20    1
    22     8    21    1
    23     9    22    1
    24     9    23    1
    25    11    24    1
    26    11    25    1
    27    12    26    1
    28    12    27    1
    29    12    28    1
    30    13    29    1
    31    13    30    1
    32    14    31    1
    33    14    32    1
    34    16    33    1
