@<TRIPOS>MOLECULE
*****
 33 34 0 0 0
SMALL
GASTEIGER

@<TRIPOS>ATOM
      1 C           0.9390   -0.0565   -0.0555 C.3     1  UNL1        0.0124
      2 C           2.4590   -0.0565   -0.0555 C.2     1  UNL1        0.2126
      3 O           3.0944    0.7848   -0.7651 O.2     1  UNL1       -0.2759
      4 N           3.1940   -1.0296    0.7653 N.am    1  UNL1       -0.2987
      5 C           4.6640   -1.0296    0.7653 C.3     1  UNL1        0.0305
      6 C           5.1706   -2.1251    1.6893 C.3     1  UNL1        0.0308
      7 N           6.6406   -2.1251    1.6893 N.am    1  UNL1       -0.2945
      8 C           7.3756   -1.1519    0.8685 C.2     1  UNL1        0.2467
      9 O           8.6465   -1.1519    0.8685 O.2     1  UNL1       -0.2700
     10 C           6.6156   -0.1457    0.0197 C.ar    1  UNL1        0.0369
     11 C           7.3357    0.8077   -0.7844 C.ar    1  UNL1       -0.0496
     12 C           6.6156    1.7611   -1.5886 C.ar    1  UNL1       -0.0610
     13 C           7.3357    2.7144   -2.3927 C.ar    1  UNL1       -0.0617
     14 C           6.6156    3.6678   -3.1969 C.ar    1  UNL1       -0.0610
     15 C           5.1754   -0.1457    0.0197 C.ar    1  UNL1       -0.0496
     16 C           7.3756   -3.0982    2.5101 C.3     1  UNL1        0.0308
     17 C           2.4590   -2.0027    1.5861 C.3     1  UNL1        0.0305
     18 H           0.5823    0.7146   -0.7059 H       1  UNL1        0.0323
     19 H           0.5823    0.1212    0.9375 H       1  UNL1        0.0323
     20 H           0.5823   -1.0054   -0.3981 H       1  UNL1        0.0323
     21 H           5.0206   -0.0808    1.1079 H       1  UNL1        0.0480
     22 H           5.0206   -1.2074   -0.2277 H       1  UNL1        0.0480
     23 H           4.8140   -3.0739    1.3467 H       1  UNL1        0.0480
     24 H           4.8140   -1.9473    2.6823 H       1  UNL1        0.0480
     25 H           8.3677    0.8077   -0.7844 H       1  UNL1        0.0625
     26 H           5.5836    1.7611   -1.5886 H       1  UNL1        0.0618
     27 H           8.3677    2.7144   -2.3927 H       1  UNL1        0.0618
     28 H           6.4908    4.4509   -3.8574 H       1  UNL1        0.0618
     29 H           4.3507   -0.6199    0.4197 H       1  UNL1        0.0625
     30 H           7.8616   -2.8264    3.4238 H       1  UNL1        0.0480
     31 H           8.0851   -3.8951    2.4289 H       1  UNL1        0.0480
     32 H           1.8857   -1.6154    2.4023 H       1  UNL1        0.0480
     33 H           1.6911   -2.6758    1.2664 H       1  UNL1        0.0480
@<TRIPOS>BOND
     1     1     2    1
     2     2     3    2
     3     2     4   am
     4     4     5    1
     5     5     6    1
     6     6     7    1
     7     7     8   am
     8     8     9    2
     9     8    10    1
    10    10    11   ar
    11    11    12   ar
    12    12    13   ar
    13    13    14   ar
    14    14    15   ar
    15    10    15   ar
    16     7    16    1
    17    16    17    1
    18     4    17    1
    19     1    18    1
    20     1    19    1
    21     1    20    1
    22     5    21    1
    23     5    22    1
    24     6    23    1
    25     6    24    1
    26    11    25    1
    27    12    26    1
    28    13    27    1
    29    14    28    1
    30    15    29    1
    31    16    30    1
    32    16    31    1
    33    17    32    1
    34    17    33    1
