@<TRIPOS>MOLECULE
*****
 50 49 0 0 0
SMALL
GASTEIGER

@<TRIPOS>ATOM
      1 C           0.9225    0.0110   -0.0622 C.3     1  UNL1       -0.0416
      2 C           2.4425    0.0110   -0.0622 C.3     1  UNL1        0.0449
      3 O           2.9158   -0.8877   -1.0546 O.3     1  UNL1       -0.3778
      4 C           4.3358   -0.8877   -1.0546 C.3     1  UNL1        0.0710
      5 C           4.8425   -1.8496   -2.1168 C.3     1  UNL1        0.0711
      6 O           6.2625   -1.8496   -2.1168 O.3     1  UNL1       -0.3752
      7 C           6.7358   -2.7483   -3.1092 C.3     1  UNL1        0.0711
      8 C           8.2558   -2.7483   -3.1092 C.3     1  UNL1        0.0711
      9 O           8.7291   -3.6470   -4.1015 O.3     1  UNL1       -0.3752
     10 C          10.1491   -3.6470   -4.1015 C.3     1  UNL1        0.0711
     11 C          10.6558   -4.6089   -5.1638 C.3     1  UNL1        0.0711
     12 O          12.0758   -4.6089   -5.1638 O.3     1  UNL1       -0.3752
     13 C          12.5491   -5.5076   -6.1561 C.3     1  UNL1        0.0711
     14 C          14.0691   -5.5076   -6.1561 C.3     1  UNL1        0.0711
     15 O          14.5425   -6.4062   -7.1485 O.3     1  UNL1       -0.3760
     16 C          15.9625   -6.4062   -7.1485 C.3     1  UNL1        0.0632
     17 C          16.4691   -7.3682   -8.2107 C.3     1  UNL1        0.0350
     18 N          17.9391   -7.3682   -8.2107 N.am    1  UNL1       -0.3133
     19 C          18.6741   -8.2227   -9.1544 C.2     1  UNL1        0.2100
     20 C          17.9141   -9.1063  -10.1301 C.3     1  UNL1        0.0121
     21 O          19.9450   -8.2227   -9.1544 O.2     1  UNL1       -0.2761
     22 H           0.5658    0.6881    0.6855 H       1  UNL1        0.0252
     23 H           0.5658   -0.9752    0.1503 H       1  UNL1        0.0252
     24 H           0.5658    0.3200   -1.0225 H       1  UNL1        0.0252
     25 H           2.7992   -0.2980    0.8981 H       1  UNL1        0.0557
     26 H           2.7992    0.9971   -0.2748 H       1  UNL1        0.0557
     27 H           4.6925   -1.1967   -0.0943 H       1  UNL1        0.0583
     28 H           4.6925    0.0985   -1.2671 H       1  UNL1        0.0583
     29 H           4.4858   -1.5406   -3.0771 H       1  UNL1        0.0583
     30 H           4.4858   -2.8358   -1.9043 H       1  UNL1        0.0583
     31 H           6.3791   -2.4393   -4.0695 H       1  UNL1        0.0583
     32 H           6.3791   -3.7345   -2.8966 H       1  UNL1        0.0583
     33 H           8.6125   -3.0573   -2.1489 H       1  UNL1        0.0583
     34 H           8.6125   -1.7621   -3.3217 H       1  UNL1        0.0583
     35 H          10.5058   -3.9560   -3.1412 H       1  UNL1        0.0583
     36 H          10.5058   -2.6608   -4.3141 H       1  UNL1        0.0583
     37 H          10.2991   -4.2999   -6.1241 H       1  UNL1        0.0583
     38 H          10.2991   -5.5951   -4.9512 H       1  UNL1        0.0583
     39 H          12.1925   -5.1986   -7.1164 H       1  UNL1        0.0583
     40 H          12.1925   -6.4937   -5.9436 H       1  UNL1        0.0583
     41 H          14.4258   -5.8166   -5.1958 H       1  UNL1        0.0583
     42 H          14.4258   -4.5214   -6.3687 H       1  UNL1        0.0583
     43 H          16.3191   -6.7152   -6.1882 H       1  UNL1        0.0575
     44 H          16.3191   -5.4201   -7.3610 H       1  UNL1        0.0575
     45 H          16.1124   -7.0592   -9.1710 H       1  UNL1        0.0484
     46 H          16.1124   -8.3543   -7.9982 H       1  UNL1        0.0484
     47 H          18.4314   -6.7959   -7.5787 H       1  UNL1        0.1488
     48 H          16.8621   -8.9751   -9.9852 H       1  UNL1        0.0322
     49 H          18.1726  -10.1305   -9.9595 H       1  UNL1        0.0322
     50 H          18.1726   -8.8354  -11.1324 H       1  UNL1        0.0322
@<TRIPOS>BOND
     1     1     2    1
     2     2     3    1
     3     3     4    1
     4     4     5    1
     5     5     6    1
     6     6     7    1
     7     7     8    1
     8     8     9    1
     9     9    10    1
    10    10    11    1
    11    11    12    1
    12    12    13    1
    13    13    14    1
    14    14    15    1
    15    15    16    1
    16    16    17    1
    17    17    18    1
    18    18    19   am
    19    19    20    1
    20    19    21    2
    21     1    22    1
    22     1    23    1
    23     1    24    1
    24     2    25    1
    25     2    26    1
    26     4    27    1
    27     4    28    1
    28     5    29    1
    29     5    30    1
    30     7    31    1
    31     7    32    1
    32     8    33    1
    33     8    34    1
    34    10    35    1
    35    10    36    1
    36    11    37    1
    37    11    38    1
    38    13    39    1
    39    13    40    1
    40    14    41    1
    41    14    42    1
    42    16    43    1
    43    16    44    1
    44    17    45    1
    45    17    46    1
    46    18    47    1
    47    20    48    1
    48    20    49    1
    49    20    50    1
