@<TRIPOS>MOLECULE
*****
 34 33 0 0 0
SMALL
GASTEIGER

@<TRIPOS>ATOM
      1 O           0.9449    0.0791   -0.0266 O.2     1  UNL1       -0.2795
      2 C           2.2158    0.0791   -0.0266 C.2     1  UNL1        0.2000
      3 N           2.9508    0.5390    1.1604 N.am    1  UNL1       -0.3157
      4 C           4.4208    0.5390    1.1604 C.3     1  UNL1        0.0348
      5 C           4.9274    1.0568    2.4967 C.3     1  UNL1        0.0632
      6 O           6.3474    1.0568    2.4967 O.3     1  UNL1       -0.3760
      7 C           6.8207    1.5405    3.7451 C.3     1  UNL1        0.0711
      8 C           8.3407    1.5405    3.7451 C.3     1  UNL1        0.0711
      9 O           8.8141    2.0242    4.9934 O.3     1  UNL1       -0.3752
     10 C          10.2341    2.0242    4.9934 C.3     1  UNL1        0.0711
     11 C          10.7407    2.5419    6.3297 C.3     1  UNL1        0.0711
     12 O          12.1607    2.5419    6.3297 O.3     1  UNL1       -0.3752
     13 C          12.6341    3.0256    7.5780 C.3     1  UNL1        0.0708
     14 C          14.1541    3.0256    7.5780 C.3     1  UNL1        0.0676
     15 O          14.6274    3.5093    8.8264 O.3     1  UNL1       -0.3927
     16 H           2.7318   -0.2439   -0.8600 H       1  UNL1        0.1251
     17 H           2.4585    0.8470    1.9554 H       1  UNL1        0.1485
     18 H           4.7774    1.1714    0.3745 H       1  UNL1        0.0484
     19 H           4.7774   -0.4579    1.0057 H       1  UNL1        0.0484
     20 H           4.5707    0.4244    3.2827 H       1  UNL1        0.0575
     21 H           4.5707    2.0536    2.6514 H       1  UNL1        0.0575
     22 H           6.4641    0.9081    4.5310 H       1  UNL1        0.0583
     23 H           6.4641    2.5373    3.8997 H       1  UNL1        0.0583
     24 H           8.6974    2.1729    2.9591 H       1  UNL1        0.0583
     25 H           8.6974    0.5436    3.5904 H       1  UNL1        0.0583
     26 H          10.5907    2.6566    4.2074 H       1  UNL1        0.0583
     27 H          10.5907    1.0273    4.8387 H       1  UNL1        0.0583
     28 H          10.3841    1.9095    7.1157 H       1  UNL1        0.0583
     29 H          10.3841    3.5388    6.4844 H       1  UNL1        0.0583
     30 H          12.2774    2.3932    8.3640 H       1  UNL1        0.0583
     31 H          12.2774    4.0225    7.7327 H       1  UNL1        0.0583
     32 H          14.5107    3.6580    6.7921 H       1  UNL1        0.0580
     33 H          14.5107    2.0288    7.4234 H       1  UNL1        0.0580
     34 H          14.3041    4.4130    8.9666 H       1  UNL1        0.2095
@<TRIPOS>BOND
     1     1     2    2
     2     2     3   am
     3     3     4    1
     4     4     5    1
     5     5     6    1
     6     6     7    1
     7     7     8    1
     8     8     9    1
     9     9    10    1
    10    10    11    1
    11    11    12    1
    12    12    13    1
    13    13    14    1
    14    14    15    1
    15     2    16    1
    16     3    17    1
    17     4    18    1
    18     4    19    1
    19     5    20    1
    20     5    21    1
    21     7    22    1
    22     7    23    1
    23     8    24    1
    24     8    25    1
    25    10    26    1
    26    10    27    1
    27    11    28    1
    28    11    29    1
    29    13    30    1
    30    13    31    1
    31    14    32    1
    32    14    33    1
    33    15    34    1
