@<TRIPOS>MOLECULE
*****
 52 51 0 0 0
SMALL
GASTEIGER

@<TRIPOS>ATOM
      1 O           0.9614    0.0719    0.0578 O.2     1  UNL1       -0.2733
      2 C           2.2323    0.0719    0.0578 C.2     1  UNL1        0.2386
      3 C           2.9923    0.8020    1.1532 C.3     1  UNL1        0.1202
      4 O           2.0696    1.4006    2.0513 O.3     1  UNL1       -0.3858
      5 N           2.9673   -0.6342   -1.0015 N.am    1  UNL1       -0.3112
      6 C           4.4373   -0.6342   -1.0015 C.3     1  UNL1        0.0351
      7 C           4.9440   -1.4290   -2.1940 C.3     1  UNL1        0.0633
      8 O           6.3640   -1.4290   -2.1940 O.3     1  UNL1       -0.3760
      9 C           6.8373   -2.1715   -3.3080 C.3     1  UNL1        0.0711
     10 C           8.3573   -2.1715   -3.3080 C.3     1  UNL1        0.0711
     11 O           8.8306   -2.9140   -4.4220 O.3     1  UNL1       -0.3752
     12 C          10.2506   -2.9140   -4.4220 C.3     1  UNL1        0.0711
     13 C          10.7573   -3.7088   -5.6145 C.3     1  UNL1        0.0711
     14 O          12.1773   -3.7088   -5.6145 O.3     1  UNL1       -0.3752
     15 C          12.6506   -4.4513   -6.7285 C.3     1  UNL1        0.0711
     16 C          14.1706   -4.4513   -6.7285 C.3     1  UNL1        0.0711
     17 O          14.6439   -5.1938   -7.8425 O.3     1  UNL1       -0.3752
     18 C          16.0639   -5.1938   -7.8425 C.3     1  UNL1        0.0711
     19 C          16.5706   -5.9886   -9.0350 C.3     1  UNL1        0.0711
     20 O          17.9906   -5.9886   -9.0350 O.3     1  UNL1       -0.3752
     21 C          18.4639   -6.7311  -10.1490 C.3     1  UNL1        0.0708
     22 C          19.9839   -6.7311  -10.1490 C.3     1  UNL1        0.0676
     23 O          20.4573   -7.4736  -11.2630 O.3     1  UNL1       -0.3927
     24 H           3.6075    1.5604    0.7158 H       1  UNL1        0.0654
     25 H           3.6075    0.1064    1.6849 H       1  UNL1        0.0654
     26 H           1.5119    2.0311    1.5693 H       1  UNL1        0.2100
     27 H           2.4751   -1.1070   -1.7110 H       1  UNL1        0.1488
     28 H           4.7940   -1.0814   -0.0972 H       1  UNL1        0.0484
     29 H           4.7940    0.3726   -1.0663 H       1  UNL1        0.0484
     30 H           4.5873   -0.9817   -3.0982 H       1  UNL1        0.0575
     31 H           4.5873   -2.4357   -2.1292 H       1  UNL1        0.0575
     32 H           6.4806   -1.7242   -4.2122 H       1  UNL1        0.0583
     33 H           6.4806   -3.1782   -3.2432 H       1  UNL1        0.0583
     34 H           8.7140   -2.6187   -2.4037 H       1  UNL1        0.0583
     35 H           8.7140   -1.1648   -3.3728 H       1  UNL1        0.0583
     36 H          10.6073   -3.3612   -3.5178 H       1  UNL1        0.0583
     37 H          10.6073   -1.9073   -4.4868 H       1  UNL1        0.0583
     38 H          10.4006   -3.2616   -6.5187 H       1  UNL1        0.0583
     39 H          10.4006   -4.7155   -5.5497 H       1  UNL1        0.0583
     40 H          12.2940   -4.0041   -7.6328 H       1  UNL1        0.0583
     41 H          12.2940   -5.4580   -6.6637 H       1  UNL1        0.0583
     42 H          14.5273   -4.8985   -5.8242 H       1  UNL1        0.0583
     43 H          14.5273   -3.4446   -6.7933 H       1  UNL1        0.0583
     44 H          16.4206   -5.6410   -6.9383 H       1  UNL1        0.0583
     45 H          16.4206   -4.1871   -7.9073 H       1  UNL1        0.0583
     46 H          16.2139   -5.5414   -9.9393 H       1  UNL1        0.0583
     47 H          16.2139   -6.9953   -8.9702 H       1  UNL1        0.0583
     48 H          18.1073   -6.2839  -11.0533 H       1  UNL1        0.0583
     49 H          18.1073   -7.7378  -10.0842 H       1  UNL1        0.0583
     50 H          20.3406   -7.1783   -9.2448 H       1  UNL1        0.0580
     51 H          20.3406   -5.7244  -10.2138 H       1  UNL1        0.0580
     52 H          20.1339   -8.3863  -11.2043 H       1  UNL1        0.2095
@<TRIPOS>BOND
     1     1     2    2
     2     2     3    1
     3     3     4    1
     4     2     5   am
     5     5     6    1
     6     6     7    1
     7     7     8    1
     8     8     9    1
     9     9    10    1
    10    10    11    1
    11    11    12    1
    12    12    13    1
    13    13    14    1
    14    14    15    1
    15    15    16    1
    16    16    17    1
    17    17    18    1
    18    18    19    1
    19    19    20    1
    20    20    21    1
    21    21    22    1
    22    22    23    1
    23     3    24    1
    24     3    25    1
    25     4    26    1
    26     5    27    1
    27     6    28    1
    28     6    29    1
    29     7    30    1
    30     7    31    1
    31     9    32    1
    32     9    33    1
    33    10    34    1
    34    10    35    1
    35    12    36    1
    36    12    37    1
    37    13    38    1
    38    13    39    1
    39    15    40    1
    40    15    41    1
    41    16    42    1
    42    16    43    1
    43    18    44    1
    44    18    45    1
    45    19    46    1
    46    19    47    1
    47    21    48    1
    48    21    49    1
    49    22    50    1
    50    22    51    1
    51    23    52    1
