@<TRIPOS>MOLECULE
*****
 21 20 0 0 0
SMALL
GASTEIGER

@<TRIPOS>ATOM
      1 C           0.9475   -0.0683   -0.0508 C.3     1  UNL1       -0.0652
      2 C           2.4675   -0.0683   -0.0508 C.3     1  UNL1       -0.0545
      3 C           2.9741    0.8249    1.0699 C.3     1  UNL1       -0.0376
      4 C           4.4941    0.8249    1.0699 C.3     1  UNL1        0.0116
      5 N           4.9841    1.6887    2.1537 N.am    1  UNL1       -0.3155
      6 C           6.4294    1.8561    2.3638 C.2     1  UNL1        0.2099
      7 C           7.4171    1.1360    1.4603 C.3     1  UNL1        0.0121
      8 O           6.8530    2.6029    3.3008 O.2     1  UNL1       -0.2761
      9 H           0.5908   -0.6970   -0.8397 H       1  UNL1        0.0230
     10 H           0.5908    0.9293   -0.2008 H       1  UNL1        0.0230
     11 H           0.5908   -0.4371    0.8882 H       1  UNL1        0.0230
     12 H           2.8241    0.3006   -0.9897 H       1  UNL1        0.0263
     13 H           2.8241   -1.0659    0.0993 H       1  UNL1        0.0263
     14 H           2.6174    0.4561    2.0089 H       1  UNL1        0.0280
     15 H           2.6174    1.8225    0.9199 H       1  UNL1        0.0280
     16 H           4.8508    1.1937    0.1310 H       1  UNL1        0.0462
     17 H           4.8508   -0.1727    1.2200 H       1  UNL1        0.0462
     18 H           4.3443    2.1551    2.7389 H       1  UNL1        0.1487
     19 H           6.8821    0.5585    0.7357 H       1  UNL1        0.0322
     20 H           8.0323    0.4882    2.0492 H       1  UNL1        0.0322
     21 H           8.0323    1.8546    0.9601 H       1  UNL1        0.0322
@<TRIPOS>BOND
     1     1     2    1
     2     2     3    1
     3     3     4    1
     4     4     5    1
     5     5     6   am
     6     6     7    1
     7     6     8    2
     8     1     9    1
     9     1    10    1
    10     1    11    1
    11     2    12    1
    12     2    13    1
    13     3    14    1
    14     3    15    1
    15     4    16    1
    16     4    17    1
    17     5    18    1
    18     7    19    1
    19     7    20    1
    20     7    21    1
