@<TRIPOS>MOLECULE
*****
 33 32 0 0 0
SMALL
GASTEIGER

@<TRIPOS>ATOM
      1 C           1.0347    0.0707    0.0616 C.3     1  UNL1       -0.0653
      2 C           2.5547    0.0707    0.0616 C.3     1  UNL1       -0.0559
      3 C           3.0613    0.2176    1.4871 C.3     1  UNL1       -0.0533
      4 C           4.5813    0.2176    1.4871 C.3     1  UNL1       -0.0517
      5 C           5.0880    0.3645    2.9126 C.3     1  UNL1       -0.0374
      6 C           6.6080    0.3645    2.9126 C.3     1  UNL1        0.0116
      7 N           7.0980    0.5066    4.2913 N.am    1  UNL1       -0.3153
      8 C           8.5432    0.5341    4.5585 C.2     1  UNL1        0.2130
      9 O           9.3691    0.4351    3.5976 O.2     1  UNL1       -0.2758
     10 C           9.0499    0.6810    5.9840 C.3     1  UNL1        0.0237
     11 C          10.5699    0.6810    5.9840 C.3     1  UNL1       -0.0476
     12 C          11.0766    0.8278    7.4095 C.3     1  UNL1       -0.0648
     13 H           0.6780   -0.0326   -0.9419 H       1  UNL1        0.0230
     14 H           0.6780    0.9915    0.4738 H       1  UNL1        0.0230
     15 H           0.6780   -0.7466    0.6529 H       1  UNL1        0.0230
     16 H           2.9113    0.8881   -0.5297 H       1  UNL1        0.0263
     17 H           2.9113   -0.8500   -0.3506 H       1  UNL1        0.0263
     18 H           2.7047   -0.5997    2.0784 H       1  UNL1        0.0265
     19 H           2.7047    1.1384    1.8993 H       1  UNL1        0.0265
     20 H           4.9380    1.0350    0.8958 H       1  UNL1        0.0266
     21 H           4.9380   -0.7031    1.0749 H       1  UNL1        0.0266
     22 H           4.7313   -0.4528    3.5039 H       1  UNL1        0.0280
     23 H           4.7313    1.2853    3.3248 H       1  UNL1        0.0280
     24 H           6.9647    1.1819    2.3213 H       1  UNL1        0.0462
     25 H           6.9647   -0.5562    2.5004 H       1  UNL1        0.0462
     26 H           6.4582    0.5832    5.0356 H       1  UNL1        0.1487
     27 H           8.6932   -0.1364    6.5753 H       1  UNL1        0.0358
     28 H           8.6932    1.6017    6.3962 H       1  UNL1        0.0358
     29 H          10.9266    1.4983    5.3927 H       1  UNL1        0.0267
     30 H          10.9266   -0.2398    5.5718 H       1  UNL1        0.0267
     31 H          10.7199    1.7486    7.8217 H       1  UNL1        0.0230
     32 H          12.1466    0.8278    7.4095 H       1  UNL1        0.0230
     33 H          10.7199    0.0105    8.0008 H       1  UNL1        0.0230
@<TRIPOS>BOND
     1     1     2    1
     2     2     3    1
     3     3     4    1
     4     4     5    1
     5     5     6    1
     6     6     7    1
     7     7     8   am
     8     8     9    2
     9     8    10    1
    10    10    11    1
    11    11    12    1
    12     1    13    1
    13     1    14    1
    14     1    15    1
    15     2    16    1
    16     2    17    1
    17     3    18    1
    18     3    19    1
    19     4    20    1
    20     4    21    1
    21     5    22    1
    22     5    23    1
    23     6    24    1
    24     6    25    1
    25     7    26    1
    26    10    27    1
    27    10    28    1
    28    11    29    1
    29    11    30    1
    30    12    31    1
    31    12    32    1
    32    12    33    1
