@<TRIPOS>MOLECULE
*****
 36 35 0 0 0
SMALL
GASTEIGER

@<TRIPOS>ATOM
      1 O           1.0391   -0.0508    0.0767 O.2     1  UNL1       -0.2986
      2 C           2.3100   -0.0508    0.0767 C.2     1  UNL1        0.1458
      3 C           3.0700   -0.0230   -1.2393 C.3     1  UNL1        0.1028
      4 O           4.4661   -0.0285   -0.9799 O.3     1  UNL1       -0.3703
      5 C           5.1761   -0.0026   -2.2094 C.3     1  UNL1        0.0715
      6 C           6.6705   -0.0084   -1.9317 C.3     1  UNL1        0.0711
      7 O           7.3805    0.0175   -3.1612 O.3     1  UNL1       -0.3752
      8 C           8.7766    0.0120   -2.9017 C.3     1  UNL1        0.0711
      9 C           9.5366    0.0398   -4.2178 C.3     1  UNL1        0.0711
     10 O          10.9327    0.0343   -3.9584 O.3     1  UNL1       -0.3760
     11 C          11.6427    0.0603   -5.1879 C.3     1  UNL1        0.0633
     12 C          13.1371    0.0544   -4.9102 C.3     1  UNL1        0.0351
     13 N          13.8721    0.0813   -6.1830 N.am    1  UNL1       -0.3112
     14 C          15.3421    0.0813   -6.1830 C.2     1  UNL1        0.2386
     15 O          15.9775    0.0580   -5.0826 O.2     1  UNL1       -0.2733
     16 C          16.1021    0.1090   -7.4990 C.3     1  UNL1        0.1202
     17 O          17.4982    0.1036   -7.2396 O.3     1  UNL1       -0.3858
     18 H           2.8260   -0.0697    0.9703 H       1  UNL1        0.1051
     19 H           2.8115    0.8622   -1.7818 H       1  UNL1        0.0636
     20 H           2.8115   -0.8847   -1.8187 H       1  UNL1        0.0636
     21 H           4.9176    0.8827   -2.7519 H       1  UNL1        0.0583
     22 H           4.9176   -0.8642   -2.7888 H       1  UNL1        0.0583
     23 H           6.9290   -0.8937   -1.3892 H       1  UNL1        0.0583
     24 H           6.9290    0.8532   -1.3523 H       1  UNL1        0.0583
     25 H           9.0351   -0.8733   -2.3592 H       1  UNL1        0.0583
     26 H           9.0351    0.8736   -2.3224 H       1  UNL1        0.0583
     27 H           9.2781    0.9251   -4.7603 H       1  UNL1        0.0583
     28 H           9.2781   -0.8218   -4.7972 H       1  UNL1        0.0583
     29 H          11.3842    0.9456   -5.7304 H       1  UNL1        0.0575
     30 H          11.3842   -0.8013   -5.7673 H       1  UNL1        0.0575
     31 H          13.3956   -0.8309   -4.3676 H       1  UNL1        0.0484
     32 H          13.3956    0.9160   -4.3308 H       1  UNL1        0.0484
     33 H          13.3798    0.0993   -7.0354 H       1  UNL1        0.1488
     34 H          15.8436    0.9943   -8.0415 H       1  UNL1        0.0654
     35 H          15.8436   -0.7526   -8.0784 H       1  UNL1        0.0654
     36 H          17.7325    0.8847   -6.7143 H       1  UNL1        0.2100
@<TRIPOS>BOND
     1     1     2    2
     2     2     3    1
     3     3     4    1
     4     4     5    1
     5     5     6    1
     6     6     7    1
     7     7     8    1
     8     8     9    1
     9     9    10    1
    10    10    11    1
    11    11    12    1
    12    12    13    1
    13    13    14   am
    14    14    15    2
    15    14    16    1
    16    16    17    1
    17     2    18    1
    18     3    19    1
    19     3    20    1
    20     5    21    1
    21     5    22    1
    22     6    23    1
    23     6    24    1
    24     8    25    1
    25     8    26    1
    26     9    27    1
    27     9    28    1
    28    11    29    1
    29    11    30    1
    30    12    31    1
    31    12    32    1
    32    13    33    1
    33    16    34    1
    34    16    35    1
    35    17    36    1
