@<TRIPOS>MOLECULE
*****
 39 38 0 0 0
SMALL
GASTEIGER

@<TRIPOS>ATOM
      1 C           0.9376   -0.0343    0.0703 C.3     1  UNL1       -0.0653
      2 C           2.4576   -0.0343    0.0703 C.3     1  UNL1       -0.0559
      3 C           2.9643   -1.0190   -0.9709 C.3     1  UNL1       -0.0533
      4 C           4.4843   -1.0190   -0.9709 C.3     1  UNL1       -0.0531
      5 C           4.9910   -2.0038   -2.0120 C.3     1  UNL1       -0.0526
      6 C           6.5110   -2.0038   -2.0120 C.3     1  UNL1       -0.0448
      7 C           7.0176   -2.9885   -3.0531 C.3     1  UNL1        0.0240
      8 C           8.5376   -2.9885   -3.0531 C.2     1  UNL1        0.2130
      9 O           9.1731   -2.2322   -2.2535 O.2     1  UNL1       -0.2758
     10 N           9.2726   -3.8633   -3.9780 N.am    1  UNL1       -0.3153
     11 C          10.7426   -3.8633   -3.9780 C.3     1  UNL1        0.0116
     12 C          11.2493   -4.8481   -5.0191 C.3     1  UNL1       -0.0376
     13 C          12.7693   -4.8481   -5.0191 C.3     1  UNL1       -0.0545
     14 C          13.2760   -5.8328   -6.0603 C.3     1  UNL1       -0.0652
     15 H           0.5810    0.6590    0.8032 H       1  UNL1        0.0230
     16 H           0.5810   -1.0156    0.3042 H       1  UNL1        0.0230
     17 H           0.5810    0.2538   -0.8965 H       1  UNL1        0.0230
     18 H           2.8143   -0.3224    1.0371 H       1  UNL1        0.0263
     19 H           2.8143    0.9471   -0.1636 H       1  UNL1        0.0263
     20 H           2.6076   -0.7309   -1.9376 H       1  UNL1        0.0265
     21 H           2.6076   -2.0003   -0.7370 H       1  UNL1        0.0265
     22 H           4.8410   -1.3071   -0.0041 H       1  UNL1        0.0265
     23 H           4.8410   -0.0377   -1.2047 H       1  UNL1        0.0265
     24 H           4.6343   -1.7157   -2.9788 H       1  UNL1        0.0265
     25 H           4.6343   -2.9851   -1.7781 H       1  UNL1        0.0265
     26 H           6.8676   -2.2919   -1.0452 H       1  UNL1        0.0270
     27 H           6.8676   -1.0224   -2.2459 H       1  UNL1        0.0270
     28 H           6.6610   -2.7004   -4.0199 H       1  UNL1        0.0358
     29 H           6.6610   -3.9698   -2.8192 H       1  UNL1        0.0358
     30 H           8.7804   -4.4492   -4.5974 H       1  UNL1        0.1487
     31 H          11.0993   -4.1514   -3.0112 H       1  UNL1        0.0462
     32 H          11.0993   -2.8820   -4.2119 H       1  UNL1        0.0462
     33 H          10.8926   -4.5600   -5.9859 H       1  UNL1        0.0280
     34 H          10.8926   -5.8294   -4.7852 H       1  UNL1        0.0280
     35 H          13.1260   -5.1362   -4.0523 H       1  UNL1        0.0263
     36 H          13.1260   -3.8668   -5.2530 H       1  UNL1        0.0263
     37 H          12.9193   -6.8141   -5.8264 H       1  UNL1        0.0230
     38 H          14.3460   -5.8328   -6.0603 H       1  UNL1        0.0230
     39 H          12.9193   -5.5447   -7.0271 H       1  UNL1        0.0230
@<TRIPOS>BOND
     1     1     2    1
     2     2     3    1
     3     3     4    1
     4     4     5    1
     5     5     6    1
     6     6     7    1
     7     7     8    1
     8     8     9    2
     9     8    10   am
    10    10    11    1
    11    11    12    1
    12    12    13    1
    13    13    14    1
    14     1    15    1
    15     1    16    1
    16     1    17    1
    17     2    18    1
    18     2    19    1
    19     3    20    1
    20     3    21    1
    21     4    22    1
    22     4    23    1
    23     5    24    1
    24     5    25    1
    25     6    26    1
    26     6    27    1
    27     7    28    1
    28     7    29    1
    29    10    30    1
    30    11    31    1
    31    11    32    1
    32    12    33    1
    33    12    34    1
    34    13    35    1
    35    13    36    1
    36    14    37    1
    37    14    38    1
    38    14    39    1
