@<TRIPOS>MOLECULE
*****
 31 32 0 0 0
SMALL
GASTEIGER

@<TRIPOS>ATOM
      1 C           0.9960    0.0653    0.0756 C.3     1  UNL1       -0.0027
      2 C           2.5160    0.0653    0.0756 C.3     1  UNL1       -0.0247
      3 C           3.0227   -0.7563   -1.0985 C.3     1  UNL1        0.0128
      4 N           2.5327   -0.1702   -2.3544 N.3     1  UNL1       -0.2969
      5 C           1.0627   -0.1702   -2.3544 C.3     1  UNL1        0.0118
      6 C           0.5560    0.4358   -3.6531 C.3     1  UNL1        0.0087
      7 N          -0.9140    0.4358   -3.6531 N.3     1  UNL1       -0.3136
      8 C          -1.4040    1.0219   -4.9090 C.3     1  UNL1        0.0087
      9 C           3.0227   -0.9648   -3.4900 C.3     1  UNL1        0.0118
     10 C           4.5427   -0.7563   -1.0985 C.3     1  UNL1       -0.0247
     11 C           5.0493   -1.5779   -2.2727 C.3     1  UNL1       -0.0027
     12 N           0.5060    0.8600    1.2111 N.3     1  UNL1       -0.3159
     13 H           0.6394   -0.9397    0.1632 H       1  UNL1        0.0424
     14 H           0.6394    0.4919   -0.8386 H       1  UNL1        0.0424
     15 H           2.8727   -0.3613    0.9898 H       1  UNL1        0.0293
     16 H           2.8727    1.0703   -0.0120 H       1  UNL1        0.0293
     17 H           2.6660   -1.7613   -1.0109 H       1  UNL1        0.0463
     18 H           0.7060    0.4082   -1.5279 H       1  UNL1        0.0439
     19 H           0.7060   -1.1752   -2.2668 H       1  UNL1        0.0439
     20 H           0.9127   -0.1426   -4.4796 H       1  UNL1        0.0437
     21 H           0.9127    1.4408   -3.7407 H       1  UNL1        0.0437
     22 H          -1.2540    0.9871   -2.8652 H       1  UNL1        0.1220
     23 H          -1.5408    2.0764   -5.0278 H       1  UNL1        0.0437
     24 H          -2.1743    0.8837   -5.6386 H       1  UNL1        0.0437
     25 H           3.9034   -0.6219   -3.9915 H       1  UNL1        0.0439
     26 H           3.3373   -1.9874   -3.5087 H       1  UNL1        0.0439
     27 H           4.8993   -1.1829   -0.1844 H       1  UNL1        0.0293
     28 H           4.8994    0.2487   -1.1862 H       1  UNL1        0.0293
     29 H           5.3875   -2.5902   -2.1954 H       1  UNL1        0.0424
     30 H           5.5520   -1.5688   -3.2172 H       1  UNL1        0.0424
     31 H           0.1837    1.8249    1.1374 H       1  UNL1        0.1219
@<TRIPOS>BOND
     1     1     2    1
     2     2     3    1
     3     3     4    1
     4     4     5    1
     5     5     6    1
     6     6     7    1
     7     7     8    1
     8     8     9    1
     9     4     9    1
    10     3    10    1
    11    10    11    1
    12    11    12    1
    13     1    12    1
    14     1    13    1
    15     1    14    1
    16     2    15    1
    17     2    16    1
    18     3    17    1
    19     5    18    1
    20     5    19    1
    21     6    20    1
    22     6    21    1
    23     7    22    1
    24     8    23    1
    25     8    24    1
    26     9    25    1
    27     9    26    1
    28    10    27    1
    29    10    28    1
    30    11    29    1
    31    11    30    1
    32    12    31    1
