@<TRIPOS>MOLECULE
*****
 41 42 0 0 0
SMALL
GASTEIGER

@<TRIPOS>ATOM
      1 C           1.0703    0.0495   -0.0511 C.3     1  UNL1        0.0029
      2 N           2.5403    0.0495   -0.0511 N.am    1  UNL1       -0.3065
      3 C           3.2753    1.1568   -0.6792 C.3     1  UNL1        0.0029
      4 C           3.2753   -1.0578    0.5770 C.2     1  UNL1        0.2292
      5 O           2.6398   -2.0151    1.1201 O.2     1  UNL1       -0.2742
      6 C           4.7953   -1.0578    0.5770 C.3     1  UNL1        0.0760
      7 N           5.2853   -2.2633    1.2609 N.3     1  UNL1       -0.2910
      8 C           6.7553   -2.2633    1.2609 C.3     1  UNL1        0.0153
      9 C           7.2619   -3.5098    1.9679 C.3     1  UNL1        0.0278
     10 N           8.7319   -3.5098    1.9679 N.am    1  UNL1       -0.2951
     11 C           9.4669   -2.4024    1.3398 C.2     1  UNL1        0.2467
     12 O          10.7378   -2.4024    1.3398 O.2     1  UNL1       -0.2700
     13 C           8.7069   -1.2575    0.6903 C.ar    1  UNL1        0.0369
     14 C           9.4270   -0.1726    0.0749 C.ar    1  UNL1       -0.0496
     15 C           8.7069    0.9123   -0.5405 C.ar    1  UNL1       -0.0610
     16 C           9.4270    1.9971   -1.1558 C.ar    1  UNL1       -0.0617
     17 C           8.7069    3.0820   -1.7712 C.ar    1  UNL1       -0.0610
     18 C           7.2667   -1.2575    0.6903 C.ar    1  UNL1       -0.0496
     19 C           9.4669   -4.6171    2.5961 C.3     1  UNL1        0.0278
     20 C           4.7953   -3.4582    0.5588 C.3     1  UNL1        0.0153
     21 H           0.7136    0.9270   -0.5488 H       1  UNL1        0.0428
     22 H           0.7136    0.0419    0.9577 H       1  UNL1        0.0428
     23 H           0.7136   -0.8203   -0.5621 H       1  UNL1        0.0428
     24 H           2.5799    1.8642   -1.0805 H       1  UNL1        0.0428
     25 H           3.8904    0.7751   -1.4671 H       1  UNL1        0.0428
     26 H           3.8904    1.6372    0.0527 H       1  UNL1        0.0428
     27 H           5.1519   -0.1880    1.0881 H       1  UNL1        0.0522
     28 H           5.1519   -1.0501   -0.4317 H       1  UNL1        0.0522
     29 H           7.1119   -1.3935    1.7719 H       1  UNL1        0.0442
     30 H           7.1119   -2.2556    0.2521 H       1  UNL1        0.0442
     31 H           6.9053   -4.3795    1.4569 H       1  UNL1        0.0477
     32 H           6.9053   -3.5174    2.9767 H       1  UNL1        0.0477
     33 H          10.4590   -0.1726    0.0749 H       1  UNL1        0.0625
     34 H           7.6749    0.9123   -0.5405 H       1  UNL1        0.0618
     35 H          10.4590    1.9971   -1.1558 H       1  UNL1        0.0618
     36 H           8.5821    3.9730   -2.2767 H       1  UNL1        0.0618
     37 H           6.4420   -1.7970    0.9964 H       1  UNL1        0.0625
     38 H           9.6453   -4.6749    3.6495 H       1  UNL1        0.0477
     39 H          10.3177   -5.2556    2.4800 H       1  UNL1        0.0477
     40 H           3.9381   -3.9567    0.9610 H       1  UNL1        0.0442
     41 H           4.4499   -3.5598   -0.4488 H       1  UNL1        0.0442
@<TRIPOS>BOND
     1     1     2    1
     2     2     3    1
     3     2     4   am
     4     4     5    2
     5     4     6    1
     6     6     7    1
     7     7     8    1
     8     8     9    1
     9     9    10    1
    10    10    11   am
    11    11    12    2
    12    11    13    1
    13    13    14   ar
    14    14    15   ar
    15    15    16   ar
    16    16    17   ar
    17    17    18   ar
    18    13    18   ar
    19    10    19    1
    20    19    20    1
    21     7    20    1
    22     1    21    1
    23     1    22    1
    24     1    23    1
    25     3    24    1
    26     3    25    1
    27     3    26    1
    28     6    27    1
    29     6    28    1
    30     8    29    1
    31     8    30    1
    32     9    31    1
    33     9    32    1
    34    14    33    1
    35    15    34    1
    36    16    35    1
    37    17    36    1
    38    18    37    1
    39    19    38    1
    40    19    39    1
    41    20    40    1
    42    20    41    1
