@<TRIPOS>MOLECULE
*****
 45 44 0 0 0
SMALL
GASTEIGER

@<TRIPOS>ATOM
      1 C           1.0951    0.0308    0.0004 C.3     1  UNL1        0.0032
      2 N           2.5651    0.0308    0.0004 N.am    1  UNL1       -0.3023
      3 C           3.3001    1.2941    0.1582 C.3     1  UNL1        0.0378
      4 C           2.3124    2.4405    0.3013 C.3     1  UNL1        0.0635
      5 O           3.0224    3.6608    0.4537 O.3     1  UNL1       -0.3760
      6 C           2.0996    4.7318    0.5874 C.3     1  UNL1        0.0711
      7 C           2.8596    6.0380    0.7505 C.3     1  UNL1        0.0711
      8 O           1.9369    7.1090    0.8843 O.3     1  UNL1       -0.3752
      9 C           2.6469    8.3293    1.0367 C.3     1  UNL1        0.0711
     10 C           1.6591    9.4757    1.1798 C.3     1  UNL1        0.0711
     11 O           2.3691   10.6960    1.3322 O.3     1  UNL1       -0.3752
     12 C           1.4463   11.7669    1.4659 C.3     1  UNL1        0.0708
     13 C           2.2063   13.0732    1.6290 C.3     1  UNL1        0.0676
     14 O           1.2836   14.1442    1.7628 O.3     1  UNL1       -0.3927
     15 C           3.3001   -1.2324   -0.1573 C.2     1  UNL1        0.2166
     16 O           2.6647   -2.3246   -0.2937 O.2     1  UNL1       -0.2756
     17 C           4.8201   -1.2324   -0.1573 C.3     1  UNL1        0.0364
     18 C           5.3268   -2.6544   -0.3349 C.3     1  UNL1        0.0014
     19 N           6.7968   -2.6544   -0.3349 N.3     1  UNL1       -0.3295
     20 H           0.7385    1.0319    0.1254 H       1  UNL1        0.0428
     21 H           0.7385   -0.5779    0.8049 H       1  UNL1        0.0428
     22 H           0.7385   -0.3614   -0.9290 H       1  UNL1        0.0428
     23 H           3.9153    1.4586   -0.7017 H       1  UNL1        0.0487
     24 H           3.9153    1.2421    1.0321 H       1  UNL1        0.0487
     25 H           1.6972    2.2760    1.1612 H       1  UNL1        0.0575
     26 H           1.6972    2.4925   -0.5726 H       1  UNL1        0.0575
     27 H           1.4845    4.5673    1.4473 H       1  UNL1        0.0583
     28 H           1.4845    4.7838   -0.2865 H       1  UNL1        0.0583
     29 H           3.4748    6.2025   -0.1093 H       1  UNL1        0.0583
     30 H           3.4748    5.9860    1.6245 H       1  UNL1        0.0583
     31 H           3.2620    8.4938    0.1768 H       1  UNL1        0.0583
     32 H           3.2620    8.2773    1.9106 H       1  UNL1        0.0583
     33 H           1.0439    9.3112    2.0397 H       1  UNL1        0.0583
     34 H           1.0439    9.5277    0.3059 H       1  UNL1        0.0583
     35 H           0.8312   11.6024    2.3258 H       1  UNL1        0.0583
     36 H           0.8312   11.8190    0.5920 H       1  UNL1        0.0583
     37 H           2.8215   13.2377    0.7691 H       1  UNL1        0.0580
     38 H           2.8215   13.0212    2.5030 H       1  UNL1        0.0580
     39 H           0.7259   14.1913    0.9705 H       1  UNL1        0.2095
     40 H           5.1768   -0.8401    0.7721 H       1  UNL1        0.0371
     41 H           5.1768   -0.6236   -0.9617 H       1  UNL1        0.0371
     42 H           4.9701   -3.0467   -1.2643 H       1  UNL1        0.0426
     43 H           4.9701   -3.2632    0.4695 H       1  UNL1        0.0426
     44 H           7.1368   -2.0741   -1.1017 H       1  UNL1        0.1182
     45 H           7.1368   -3.6087   -0.4540 H       1  UNL1        0.1182
@<TRIPOS>BOND
     1     1     2    1
     2     2     3    1
     3     3     4    1
     4     4     5    1
     5     5     6    1
     6     6     7    1
     7     7     8    1
     8     8     9    1
     9     9    10    1
    10    10    11    1
    11    11    12    1
    12    12    13    1
    13    13    14    1
    14     2    15   am
    15    15    16    2
    16    15    17    1
    17    17    18    1
    18    18    19    1
    19     1    20    1
    20     1    21    1
    21     1    22    1
    22     3    23    1
    23     3    24    1
    24     4    25    1
    25     4    26    1
    26     6    27    1
    27     6    28    1
    28     7    29    1
    29     7    30    1
    30     9    31    1
    31     9    32    1
    32    10    33    1
    33    10    34    1
    34    12    35    1
    35    12    36    1
    36    13    37    1
    37    13    38    1
    38    14    39    1
    39    17    40    1
    40    17    41    1
    41    18    42    1
    42    18    43    1
    43    19    44    1
    44    19    45    1
