@<TRIPOS>MOLECULE
*****
 34 33 0 0 0
SMALL
GASTEIGER

@<TRIPOS>ATOM
      1 C           0.9329   -0.0529   -0.0520 C.3     1  UNL1       -0.0653
      2 C           2.4529   -0.0529   -0.0520 C.3     1  UNL1       -0.0559
      3 C           2.9595   -1.4858   -0.0359 C.3     1  UNL1       -0.0533
      4 C           4.4795   -1.4858   -0.0359 C.3     1  UNL1       -0.0531
      5 C           4.9862   -2.9188   -0.0199 C.3     1  UNL1       -0.0530
      6 C           6.5062   -2.9188   -0.0199 C.3     1  UNL1       -0.0516
      7 C           7.0129   -4.3518   -0.0038 C.3     1  UNL1       -0.0374
      8 C           8.5329   -4.3518   -0.0038 C.3     1  UNL1        0.0117
      9 N           9.0229   -5.7376    0.0117 N.am    1  UNL1       -0.3134
     10 C          10.4681   -6.0062    0.0147 C.2     1  UNL1        0.2385
     11 O          11.2940   -5.0403    0.0039 O.2     1  UNL1       -0.2733
     12 C          10.9748   -7.4392    0.0308 C.3     1  UNL1        0.1202
     13 O          12.3948   -7.4392    0.0308 O.3     1  UNL1       -0.3858
     14 H           0.5762    0.9559   -0.0633 H       1  UNL1        0.0230
     15 H           0.5762   -0.5474    0.8273 H       1  UNL1        0.0230
     16 H           0.5762   -0.5670   -0.9199 H       1  UNL1        0.0230
     17 H           2.8096    0.4613    0.8160 H       1  UNL1        0.0263
     18 H           2.8096    0.4417   -0.9312 H       1  UNL1        0.0263
     19 H           2.6029   -2.0000   -0.9039 H       1  UNL1        0.0265
     20 H           2.6029   -1.9804    0.8433 H       1  UNL1        0.0265
     21 H           4.8362   -0.9717    0.8320 H       1  UNL1        0.0265
     22 H           4.8362   -0.9913   -0.9152 H       1  UNL1        0.0265
     23 H           4.6295   -3.4330   -0.8878 H       1  UNL1        0.0265
     24 H           4.6295   -3.4134    0.8594 H       1  UNL1        0.0265
     25 H           6.8629   -2.4047    0.8481 H       1  UNL1        0.0266
     26 H           6.8629   -2.4242   -0.8991 H       1  UNL1        0.0266
     27 H           6.6562   -4.8660   -0.8717 H       1  UNL1        0.0280
     28 H           6.6562   -4.8464    0.8755 H       1  UNL1        0.0280
     29 H           8.8895   -3.8376    0.8641 H       1  UNL1        0.0462
     30 H           8.8895   -3.8572   -0.8830 H       1  UNL1        0.0462
     31 H           8.3831   -6.4859    0.0201 H       1  UNL1        0.1487
     32 H          10.6181   -7.9534   -0.8371 H       1  UNL1        0.0654
     33 H          10.6181   -7.9338    0.9101 H       1  UNL1        0.0654
     34 H          12.7181   -6.9909   -0.7663 H       1  UNL1        0.2100
@<TRIPOS>BOND
     1     1     2    1
     2     2     3    1
     3     3     4    1
     4     4     5    1
     5     5     6    1
     6     6     7    1
     7     7     8    1
     8     8     9    1
     9     9    10   am
    10    10    11    2
    11    10    12    1
    12    12    13    1
    13     1    14    1
    14     1    15    1
    15     1    16    1
    16     2    17    1
    17     2    18    1
    18     3    19    1
    19     3    20    1
    20     4    21    1
    21     4    22    1
    22     5    23    1
    23     5    24    1
    24     6    25    1
    25     6    26    1
    26     7    27    1
    27     7    28    1
    28     8    29    1
    29     8    30    1
    30     9    31    1
    31    12    32    1
    32    12    33    1
    33    13    34    1
