@<TRIPOS>MOLECULE
*****
 23 22 0 0 0
SMALL
GASTEIGER

@<TRIPOS>ATOM
      1 C           1.0596    0.0682    0.0424 C.3     1  UNL1       -0.0416
      2 C           2.5796    0.0682    0.0424 C.3     1  UNL1        0.0449
      3 O           3.0529    0.9054   -1.0023 O.3     1  UNL1       -0.3778
      4 C           4.4729    0.9054   -1.0023 C.3     1  UNL1        0.0710
      5 C           4.9796    1.8016   -2.1206 C.3     1  UNL1        0.0711
      6 O           6.3996    1.8016   -2.1206 O.3     1  UNL1       -0.3752
      7 C           6.8729    2.6389   -3.1653 C.3     1  UNL1        0.0708
      8 C           8.3929    2.6389   -3.1653 C.3     1  UNL1        0.0676
      9 O           8.8662    3.4761   -4.2100 O.3     1  UNL1       -0.3927
     10 H           0.7029   -0.5627    0.8296 H       1  UNL1        0.0252
     11 H           0.7029   -0.2981   -0.8976 H       1  UNL1        0.0252
     12 H           0.7029    1.0654    0.1951 H       1  UNL1        0.0252
     13 H           2.9363   -0.9290   -0.1104 H       1  UNL1        0.0557
     14 H           2.9363    0.4345    0.9823 H       1  UNL1        0.0557
     15 H           4.8296   -0.0917   -1.1551 H       1  UNL1        0.0583
     16 H           4.8296    1.2717   -0.0624 H       1  UNL1        0.0583
     17 H           4.6229    2.7988   -1.9679 H       1  UNL1        0.0583
     18 H           4.6229    1.4353   -3.0606 H       1  UNL1        0.0583
     19 H           6.5163    3.6360   -3.0126 H       1  UNL1        0.0583
     20 H           6.5162    2.2725   -4.1053 H       1  UNL1        0.0583
     21 H           8.7496    1.6417   -3.3181 H       1  UNL1        0.0580
     22 H           8.7496    3.0052   -2.2254 H       1  UNL1        0.0580
     23 H           8.5429    3.1440   -5.0621 H       1  UNL1        0.2095
@<TRIPOS>BOND
     1     1     2    1
     2     2     3    1
     3     3     4    1
     4     4     5    1
     5     5     6    1
     6     6     7    1
     7     7     8    1
     8     8     9    1
     9     1    10    1
    10     1    11    1
    11     1    12    1
    12     2    13    1
    13     2    14    1
    14     4    15    1
    15     4    16    1
    16     5    17    1
    17     5    18    1
    18     7    19    1
    19     7    20    1
    20     8    21    1
    21     8    22    1
    22     9    23    1
