@<TRIPOS>MOLECULE
*****
 24 25 0 0 0
SMALL
GASTEIGER

@<TRIPOS>ATOM
      1 C           1.0804   -0.0594   -0.0040 C.3     1  UNL1       -0.0521
      2 C           2.6004   -0.0594   -0.0040 C.3     1  UNL1       -0.0473
      3 C           3.1070    0.4685    1.3283 C.3     1  UNL1       -0.0269
      4 C           0.5737   -0.5872   -1.3364 C.3     1  UNL1       -0.0473
      5 C           4.6270    0.4685    1.3283 C.3     1  UNL1       -0.0347
      6 C           5.1337    0.9964    2.6606 C.3     1  UNL1       -0.0036
      7 N           6.6037    0.9964    2.6606 N.3     1  UNL1       -0.3159
      8 C           7.0937    1.5069    3.9490 C.3     1  UNL1       -0.0036
      9 C           2.6004   -0.4213    2.4516 C.3     1  UNL1       -0.0347
     10 H           0.7237    0.9387    0.1431 H       1  UNL1        0.0266
     11 H           0.7237   -0.6858    0.7867 H       1  UNL1        0.0266
     12 H           2.9570    0.5671   -0.7948 H       1  UNL1        0.0271
     13 H           2.9570   -1.0574   -0.1512 H       1  UNL1        0.0271
     14 H           0.2604   -1.5956   -1.5095 H       1  UNL1        0.0271
     15 H           0.1062   -0.3750   -2.2751 H       1  UNL1        0.0271
     16 H           4.9837    1.0949    0.5375 H       1  UNL1        0.0283
     17 H           4.9837   -0.5295    1.1811 H       1  UNL1        0.0283
     18 H           4.7770    0.3700    3.4513 H       1  UNL1        0.0424
     19 H           4.7770    1.9944    2.8077 H       1  UNL1        0.0424
     20 H           6.9437    1.5936    1.9068 H       1  UNL1        0.1219
     21 H           7.2293    2.5529    4.1291 H       1  UNL1        0.0424
     22 H           7.8689    1.3261    4.6641 H       1  UNL1        0.0424
     23 H           1.7237   -0.1070    2.9784 H       1  UNL1        0.0283
     24 H           2.2813   -1.4420    2.4141 H       1  UNL1        0.0283
@<TRIPOS>BOND
     1     1     2    1
     2     2     3    1
     3     3     4    1
     4     1     4    1
     5     3     5    1
     6     5     6    1
     7     6     7    1
     8     7     8    1
     9     8     9    1
    10     3     9    1
    11     1    10    1
    12     1    11    1
    13     2    12    1
    14     2    13    1
    15     4    14    1
    16     4    15    1
    17     5    16    1
    18     5    17    1
    19     6    18    1
    20     6    19    1
    21     7    20    1
    22     8    21    1
    23     8    22    1
    24     9    23    1
    25     9    24    1
