@<TRIPOS>MOLECULE
*****
 36 35 0 0 0
SMALL
GASTEIGER

@<TRIPOS>ATOM
      1 N           1.0687   -0.0157    0.0709 N.3     1  UNL1       -0.3300
      2 C           2.5387   -0.0157    0.0709 C.3     1  UNL1       -0.0069
      3 C           3.0454   -0.2468    1.4852 C.3     1  UNL1       -0.0406
      4 C           4.5654   -0.2468    1.4852 C.3     1  UNL1       -0.0519
      5 C           5.0721   -0.4780    2.8995 C.3     1  UNL1       -0.0530
      6 C           6.5921   -0.4780    2.8995 C.3     1  UNL1       -0.0530
      7 C           7.0987   -0.7091    4.3138 C.3     1  UNL1       -0.0516
      8 C           8.6187   -0.7091    4.3138 C.3     1  UNL1       -0.0374
      9 C           9.1254   -0.9403    5.7282 C.3     1  UNL1        0.0117
     10 N          10.5954   -0.9403    5.7282 N.am    1  UNL1       -0.3134
     11 C          11.3304   -1.1456    6.9845 C.2     1  UNL1        0.2385
     12 O          10.6949   -1.3231    8.0708 O.2     1  UNL1       -0.2733
     13 C          12.8504   -1.1456    6.9845 C.3     1  UNL1        0.1202
     14 O          13.3237   -1.3615    8.3058 O.3     1  UNL1       -0.3858
     15 H           0.7287    0.1394   -0.8782 H       1  UNL1        0.1182
     16 H           0.7287    0.7287    0.6798 H       1  UNL1        0.1182
     17 H           2.8954    0.9279   -0.2860 H       1  UNL1        0.0422
     18 H           2.8954   -0.7965   -0.5678 H       1  UNL1        0.0422
     19 H           2.6887   -1.1904    1.8421 H       1  UNL1        0.0277
     20 H           2.6887    0.5340    2.1239 H       1  UNL1        0.0277
     21 H           4.9221    0.6967    1.1283 H       1  UNL1        0.0266
     22 H           4.9221   -1.0277    0.8465 H       1  UNL1        0.0266
     23 H           4.7154   -1.4215    3.2564 H       1  UNL1        0.0265
     24 H           4.7154    0.3029    3.5383 H       1  UNL1        0.0265
     25 H           6.9487    0.4656    2.5427 H       1  UNL1        0.0265
     26 H           6.9487   -1.2588    2.2608 H       1  UNL1        0.0265
     27 H           6.7420   -1.6527    4.6707 H       1  UNL1        0.0266
     28 H           6.7420    0.0717    4.9526 H       1  UNL1        0.0266
     29 H           8.9754    0.2344    3.9570 H       1  UNL1        0.0280
     30 H           8.9754   -1.4900    3.6751 H       1  UNL1        0.0280
     31 H           8.7687   -1.8838    6.0850 H       1  UNL1        0.0462
     32 H           8.7687   -0.1594    6.3669 H       1  UNL1        0.0462
     33 H          11.0876   -0.8027    4.8867 H       1  UNL1        0.1487
     34 H          13.2070   -0.2020    6.6277 H       1  UNL1        0.0654
     35 H          13.2070   -1.9264    6.3458 H       1  UNL1        0.0654
     36 H          13.0004   -0.6536    8.8848 H       1  UNL1        0.2100
@<TRIPOS>BOND
     1     1     2    1
     2     2     3    1
     3     3     4    1
     4     4     5    1
     5     5     6    1
     6     6     7    1
     7     7     8    1
     8     8     9    1
     9     9    10    1
    10    10    11   am
    11    11    12    2
    12    11    13    1
    13    13    14    1
    14     1    15    1
    15     1    16    1
    16     2    17    1
    17     2    18    1
    18     3    19    1
    19     3    20    1
    20     4    21    1
    21     4    22    1
    22     5    23    1
    23     5    24    1
    24     6    25    1
    25     6    26    1
    26     7    27    1
    27     7    28    1
    28     8    29    1
    29     8    30    1
    30     9    31    1
    31     9    32    1
    32    10    33    1
    33    13    34    1
    34    13    35    1
    35    14    36    1
