@<TRIPOS>MOLECULE
*****
 37 36 0 0 0
SMALL
GASTEIGER

@<TRIPOS>ATOM
      1 C           0.9304   -0.0247   -0.0674 C.3     1  UNL1       -0.0570
      2 C           2.4504   -0.0247   -0.0674 C.3     1  UNL1        0.0211
      3 C           2.9571    1.3747    0.2413 C.2     1  UNL1        0.2128
      4 O           2.1312    2.3180    0.4494 O.2     1  UNL1       -0.2758
      5 N           4.4023    1.6370    0.2992 N.am    1  UNL1       -0.3153
      6 C           4.8923    2.9904    0.5978 C.3     1  UNL1        0.0116
      7 C           6.4123    2.9904    0.5978 C.3     1  UNL1       -0.0374
      8 C           6.9190    4.3898    0.9065 C.3     1  UNL1       -0.0516
      9 C           8.4390    4.3898    0.9065 C.3     1  UNL1       -0.0530
     10 C           8.9456    5.7892    1.2153 C.3     1  UNL1       -0.0530
     11 C          10.4656    5.7892    1.2153 C.3     1  UNL1       -0.0510
     12 C          10.9723    7.1886    1.5240 C.3     1  UNL1       -0.0297
     13 C          12.4923    7.1886    1.5240 C.3     1  UNL1        0.0442
     14 O          12.9656    8.4960    1.8125 O.3     1  UNL1       -0.3950
     15 H           0.5737   -1.0099   -0.2847 H       1  UNL1        0.0234
     16 H           0.5737    0.6560   -0.8119 H       1  UNL1        0.0234
     17 H           0.5737    0.2796    0.8944 H       1  UNL1        0.0234
     18 H           2.8071   -0.3291   -1.0292 H       1  UNL1        0.0356
     19 H           2.8071   -0.7055    0.6771 H       1  UNL1        0.0356
     20 H           5.0421    0.9063    0.1380 H       1  UNL1        0.1487
     21 H           4.5356    3.2947    1.5596 H       1  UNL1        0.0462
     22 H           4.5356    3.6711   -0.1467 H       1  UNL1        0.0462
     23 H           6.7690    2.6860   -0.3640 H       1  UNL1        0.0280
     24 H           6.7690    2.3096    1.3423 H       1  UNL1        0.0280
     25 H           6.5623    4.6941    1.8683 H       1  UNL1        0.0266
     26 H           6.5623    5.0706    0.1621 H       1  UNL1        0.0266
     27 H           8.7956    4.0854   -0.0553 H       1  UNL1        0.0265
     28 H           8.7956    3.7090    1.6510 H       1  UNL1        0.0265
     29 H           8.5890    6.0935    2.1771 H       1  UNL1        0.0265
     30 H           8.5890    6.4700    0.4708 H       1  UNL1        0.0265
     31 H          10.8223    5.4849    0.2535 H       1  UNL1        0.0266
     32 H          10.8223    5.1084    1.9597 H       1  UNL1        0.0266
     33 H          10.6156    7.4930    2.4858 H       1  UNL1        0.0287
     34 H          10.6156    7.8694    0.7796 H       1  UNL1        0.0287
     35 H          12.8490    6.8843    0.5622 H       1  UNL1        0.0557
     36 H          12.8490    6.5078    2.2685 H       1  UNL1        0.0557
     37 H          12.6423    9.1131    1.1376 H       1  UNL1        0.2094
@<TRIPOS>BOND
     1     1     2    1
     2     2     3    1
     3     3     4    2
     4     3     5   am
     5     5     6    1
     6     6     7    1
     7     7     8    1
     8     8     9    1
     9     9    10    1
    10    10    11    1
    11    11    12    1
    12    12    13    1
    13    13    14    1
    14     1    15    1
    15     1    16    1
    16     1    17    1
    17     2    18    1
    18     2    19    1
    19     5    20    1
    20     6    21    1
    21     6    22    1
    22     7    23    1
    23     7    24    1
    24     8    25    1
    25     8    26    1
    26     9    27    1
    27     9    28    1
    28    10    29    1
    29    10    30    1
    30    11    31    1
    31    11    32    1
    32    12    33    1
    33    12    34    1
    34    13    35    1
    35    13    36    1
    36    14    37    1
