@<TRIPOS>MOLECULE
*****
 16 15 0 0 0
SMALL
GASTEIGER

@<TRIPOS>ATOM
      1 C           1.0400   -0.0659    0.0638 C.3     1  UNL1        0.0364
      2 O           2.4600   -0.0659    0.0638 O.3     1  UNL1       -0.3829
      3 C           2.9333    0.9442    0.9425 C.3     1  UNL1        0.0494
      4 C           4.4533    0.9442    0.9425 C.3     1  UNL1       -0.0062
      5 C           4.9600    2.0254    1.8831 C.3     1  UNL1        0.0463
      6 O           6.3800    2.0254    1.8831 O.3     1  UNL1       -0.3949
      7 H           0.6833   -0.8269   -0.5984 H       1  UNL1        0.0523
      8 H           0.6833    0.8881   -0.2643 H       1  UNL1        0.0523
      9 H           0.6833   -0.2587    1.0539 H       1  UNL1        0.0523
     10 H           2.5766    0.7513    1.9327 H       1  UNL1        0.0560
     11 H           2.5766    1.8982    0.6144 H       1  UNL1        0.0560
     12 H           4.8100    1.1371   -0.0477 H       1  UNL1        0.0309
     13 H           4.8100   -0.0098    1.2705 H       1  UNL1        0.0309
     14 H           4.6033    1.8325    2.8733 H       1  UNL1        0.0558
     15 H           4.6033    2.9793    1.5551 H       1  UNL1        0.0558
     16 H           6.7033    1.1605    2.1805 H       1  UNL1        0.2094
@<TRIPOS>BOND
     1     1     2    1
     2     2     3    1
     3     3     4    1
     4     4     5    1
     5     5     6    1
     6     1     7    1
     7     1     8    1
     8     1     9    1
     9     3    10    1
    10     3    11    1
    11     4    12    1
    12     4    13    1
    13     5    14    1
    14     5    15    1
    15     6    16    1
