@<TRIPOS>MOLECULE
*****
 25 24 0 0 0
SMALL
GASTEIGER

@<TRIPOS>ATOM
      1 N           0.9238    0.0616    0.0197 N.3     1  UNL1       -0.3279
      2 C           2.3938    0.0616    0.0197 C.3     1  UNL1        0.0166
      3 C           2.9004    0.0160    1.4520 C.3     1  UNL1        0.0600
      4 O           4.3204    0.0160    1.4520 O.3     1  UNL1       -0.3763
      5 C           4.7938   -0.0267    2.7901 C.3     1  UNL1        0.0711
      6 C           6.3138   -0.0267    2.7901 C.3     1  UNL1        0.0711
      7 O           6.7871   -0.0693    4.1283 O.3     1  UNL1       -0.3752
      8 C           8.2071   -0.0693    4.1283 C.3     1  UNL1        0.0708
      9 C           8.7137   -0.1150    5.5606 C.3     1  UNL1        0.0676
     10 O          10.1337   -0.1150    5.5606 O.3     1  UNL1       -0.3927
     11 H           0.5838    0.0923   -0.9415 H       1  UNL1        0.1183
     12 H           0.5838    0.8787    0.5268 H       1  UNL1        0.1183
     13 H           2.7504    0.9509   -0.4566 H       1  UNL1        0.0444
     14 H           2.7504   -0.7955   -0.5123 H       1  UNL1        0.0444
     15 H           2.5438   -0.8733    1.9283 H       1  UNL1        0.0572
     16 H           2.5438    0.8731    1.9840 H       1  UNL1        0.0572
     17 H           4.4371   -0.9160    3.2665 H       1  UNL1        0.0583
     18 H           4.4371    0.8305    3.3221 H       1  UNL1        0.0583
     19 H           6.6704    0.8626    2.3138 H       1  UNL1        0.0583
     20 H           6.6704   -0.8838    2.2582 H       1  UNL1        0.0583
     21 H           8.5637    0.8199    3.6520 H       1  UNL1        0.0583
     22 H           8.5637   -0.9265    3.5963 H       1  UNL1        0.0583
     23 H           8.3571   -1.0043    6.0369 H       1  UNL1        0.0580
     24 H           8.3571    0.7421    6.0926 H       1  UNL1        0.0580
     25 H          10.4571   -0.8920    5.0783 H       1  UNL1        0.2095
@<TRIPOS>BOND
     1     1     2    1
     2     2     3    1
     3     3     4    1
     4     4     5    1
     5     5     6    1
     6     6     7    1
     7     7     8    1
     8     8     9    1
     9     9    10    1
    10     1    11    1
    11     1    12    1
    12     2    13    1
    13     2    14    1
    14     3    15    1
    15     3    16    1
    16     5    17    1
    17     5    18    1
    18     6    19    1
    19     6    20    1
    20     8    21    1
    21     8    22    1
    22     9    23    1
    23     9    24    1
    24    10    25    1
