@<TRIPOS>MOLECULE
*****
 16 15 0 0 0
SMALL
GASTEIGER

@<TRIPOS>ATOM
      1 C           0.9964    0.0444   -0.0896 C.3     1  UNL1        0.0364
      2 O           2.4164    0.0444   -0.0896 O.3     1  UNL1       -0.3829
      3 C           2.8897    1.0509   -0.9723 C.3     1  UNL1        0.0494
      4 C           4.4097    1.0509   -0.9723 C.3     1  UNL1       -0.0062
      5 C           4.9164    2.1284   -1.9172 C.3     1  UNL1        0.0463
      6 O           6.3364    2.1284   -1.9172 O.3     1  UNL1       -0.3949
      7 H           0.6397   -0.7141    0.5756 H       1  UNL1        0.0523
      8 H           0.6397   -0.1524   -1.0790 H       1  UNL1        0.0523
      9 H           0.6397    0.9996    0.2347 H       1  UNL1        0.0523
     10 H           2.5330    2.0062   -0.6480 H       1  UNL1        0.0560
     11 H           2.5330    0.8541   -1.9617 H       1  UNL1        0.0560
     12 H           4.7664    0.0956   -1.2965 H       1  UNL1        0.0309
     13 H           4.7664    1.2477    0.0171 H       1  UNL1        0.0309
     14 H           4.5597    3.0836   -1.5929 H       1  UNL1        0.0558
     15 H           4.5597    1.9316   -2.9066 H       1  UNL1        0.0558
     16 H           6.6597    2.3068   -1.0202 H       1  UNL1        0.2094
@<TRIPOS>BOND
     1     1     2    1
     2     2     3    1
     3     3     4    1
     4     4     5    1
     5     5     6    1
     6     1     7    1
     7     1     8    1
     8     1     9    1
     9     3    10    1
    10     3    11    1
    11     4    12    1
    12     4    13    1
    13     5    14    1
    14     5    15    1
    15     6    16    1
