@<TRIPOS>MOLECULE
*****
 38 37 0 0 0
SMALL
GASTEIGER

@<TRIPOS>ATOM
      1 C           1.0661   -0.0750   -0.0006 C.3     1  UNL1       -0.0653
      2 C           2.5861   -0.0750   -0.0006 C.3     1  UNL1       -0.0559
      3 C           3.0927    0.0745    1.4247 C.3     1  UNL1       -0.0529
      4 C           4.6127    0.0745    1.4247 C.3     1  UNL1       -0.0448
      5 C           5.1194    0.2241    2.8499 C.3     1  UNL1        0.0241
      6 C           6.6394    0.2241    2.8499 C.2     1  UNL1        0.2154
      7 O           7.2749    0.1092    1.7553 O.2     1  UNL1       -0.2756
      8 N           7.3744    0.3569    4.1160 N.am    1  UNL1       -0.3033
      9 C           6.6394    0.4898    5.3821 C.3     1  UNL1        0.0032
     10 C           8.8444    0.3569    4.1160 C.3     1  UNL1        0.0271
     11 C           9.3511    0.5065    5.5413 C.3     1  UNL1        0.0141
     12 N          10.8211    0.5065    5.5413 N.3     1  UNL1       -0.3069
     13 C          11.3111    1.6278    4.7268 C.3     1  UNL1       -0.0130
     14 C          11.3111    0.6511    6.9196 C.3     1  UNL1       -0.0130
     15 H           0.7094   -0.1803   -1.0039 H       1  UNL1        0.0230
     16 H           0.7094    0.8465    0.4099 H       1  UNL1        0.0230
     17 H           0.7094   -0.8913    0.5922 H       1  UNL1        0.0230
     18 H           2.9428    0.7412   -0.5934 H       1  UNL1        0.0263
     19 H           2.9428   -0.9966   -0.4111 H       1  UNL1        0.0263
     20 H           2.7361   -0.7417    2.0175 H       1  UNL1        0.0265
     21 H           2.7361    0.9960    1.8351 H       1  UNL1        0.0265
     22 H           4.9694    0.8907    0.8318 H       1  UNL1        0.0270
     23 H           4.9694   -0.8470    1.0142 H       1  UNL1        0.0270
     24 H           4.7627   -0.5922    3.4427 H       1  UNL1        0.0358
     25 H           4.7627    1.1456    3.2604 H       1  UNL1        0.0358
     26 H           5.5874    0.4694    5.1877 H       1  UNL1        0.0428
     27 H           6.8979    1.4172    5.8490 H       1  UNL1        0.0428
     28 H           6.8979   -0.3206    6.0313 H       1  UNL1        0.0428
     29 H           9.2011    1.1732    3.5232 H       1  UNL1        0.0477
     30 H           9.2011   -0.5646    3.7055 H       1  UNL1        0.0477
     31 H           8.9944   -0.3098    6.1341 H       1  UNL1        0.0442
     32 H           8.9944    1.4280    5.9517 H       1  UNL1        0.0442
     33 H          10.9544    1.5226    3.7235 H       1  UNL1        0.0391
     34 H          12.3811    1.6278    4.7268 H       1  UNL1        0.0391
     35 H          10.9544    2.5494    5.1373 H       1  UNL1        0.0391
     36 H          10.9544   -0.1651    7.5124 H       1  UNL1        0.0391
     37 H          10.9544    1.5726    7.3301 H       1  UNL1        0.0391
     38 H          12.3811    0.6511    6.9196 H       1  UNL1        0.0391
@<TRIPOS>BOND
     1     1     2    1
     2     2     3    1
     3     3     4    1
     4     4     5    1
     5     5     6    1
     6     6     7    2
     7     6     8   am
     8     8     9    1
     9     8    10    1
    10    10    11    1
    11    11    12    1
    12    12    13    1
    13    12    14    1
    14     1    15    1
    15     1    16    1
    16     1    17    1
    17     2    18    1
    18     2    19    1
    19     3    20    1
    20     3    21    1
    21     4    22    1
    22     4    23    1
    23     5    24    1
    24     5    25    1
    25     9    26    1
    26     9    27    1
    27     9    28    1
    28    10    29    1
    29    10    30    1
    30    11    31    1
    31    11    32    1
    32    13    33    1
    33    13    34    1
    34    13    35    1
    35    14    36    1
    36    14    37    1
    37    14    38    1
