@<TRIPOS>MOLECULE
*****
 52 51 0 0 0
SMALL
GASTEIGER

@<TRIPOS>ATOM
      1 C           0.9910   -0.0309    0.0947 C.3     1  UNL1       -0.0416
      2 C           2.5110   -0.0309    0.0947 C.3     1  UNL1        0.0449
      3 O           2.9843    1.1290   -0.5739 O.3     1  UNL1       -0.3778
      4 C           4.4043    1.1290   -0.5739 C.3     1  UNL1        0.0710
      5 C           4.9110    2.3706   -1.2896 C.3     1  UNL1        0.0711
      6 O           6.3310    2.3706   -1.2896 O.3     1  UNL1       -0.3752
      7 C           6.8043    3.5305   -1.9581 C.3     1  UNL1        0.0711
      8 C           8.3243    3.5305   -1.9581 C.3     1  UNL1        0.0711
      9 O           8.7977    4.6904   -2.6267 O.3     1  UNL1       -0.3752
     10 C          10.2177    4.6904   -2.6267 C.3     1  UNL1        0.0711
     11 C          10.7243    5.9319   -3.3424 C.3     1  UNL1        0.0711
     12 O          12.1443    5.9319   -3.3424 O.3     1  UNL1       -0.3752
     13 C          12.6176    7.0918   -4.0110 C.3     1  UNL1        0.0711
     14 C          14.1376    7.0918   -4.0110 C.3     1  UNL1        0.0711
     15 O          14.6110    8.2517   -4.6796 O.3     1  UNL1       -0.3752
     16 C          16.0310    8.2517   -4.6796 C.3     1  UNL1        0.0711
     17 C          16.5376    9.4933   -5.3952 C.3     1  UNL1        0.0711
     18 O          17.9576    9.4933   -5.3952 O.3     1  UNL1       -0.3763
     19 C          18.4310   10.6532   -6.0638 C.3     1  UNL1        0.0600
     20 C          19.9510   10.6532   -6.0638 C.3     1  UNL1        0.0166
     21 N          20.4410   11.8540   -6.7559 N.3     1  UNL1       -0.3279
     22 H           0.6343   -0.9049    0.5985 H       1  UNL1        0.0252
     23 H           0.6343   -0.0302   -0.9141 H       1  UNL1        0.0252
     24 H           0.6343    0.8424    0.5997 H       1  UNL1        0.0252
     25 H           2.8677   -0.9042   -0.4103 H       1  UNL1        0.0557
     26 H           2.8677   -0.0316    1.1035 H       1  UNL1        0.0557
     27 H           4.7610    0.2557   -1.0789 H       1  UNL1        0.0583
     28 H           4.7610    1.1283    0.4349 H       1  UNL1        0.0583
     29 H           4.5543    3.2439   -0.7845 H       1  UNL1        0.0583
     30 H           4.5543    2.3713   -2.2984 H       1  UNL1        0.0583
     31 H           6.4477    4.4038   -1.4531 H       1  UNL1        0.0583
     32 H           6.4477    3.5312   -2.9670 H       1  UNL1        0.0583
     33 H           8.6810    2.6572   -2.4632 H       1  UNL1        0.0583
     34 H           8.6810    3.5298   -0.9493 H       1  UNL1        0.0583
     35 H          10.5743    3.8171   -3.1317 H       1  UNL1        0.0583
     36 H          10.5743    4.6897   -1.6179 H       1  UNL1        0.0583
     37 H          10.3676    6.8052   -2.8374 H       1  UNL1        0.0583
     38 H          10.3676    5.9327   -4.3512 H       1  UNL1        0.0583
     39 H          12.2610    7.9651   -3.5060 H       1  UNL1        0.0583
     40 H          12.2610    7.0926   -5.0198 H       1  UNL1        0.0583
     41 H          14.4943    6.2185   -4.5160 H       1  UNL1        0.0583
     42 H          14.4943    7.0911   -3.0022 H       1  UNL1        0.0583
     43 H          16.3876    7.3784   -5.1846 H       1  UNL1        0.0583
     44 H          16.3876    8.2510   -3.6708 H       1  UNL1        0.0583
     45 H          16.1810   10.3666   -4.8902 H       1  UNL1        0.0583
     46 H          16.1810    9.4940   -6.4040 H       1  UNL1        0.0583
     47 H          18.0743   11.5265   -5.5588 H       1  UNL1        0.0572
     48 H          18.0743   10.6539   -7.0726 H       1  UNL1        0.0572
     49 H          20.3076    9.7799   -6.5688 H       1  UNL1        0.0444
     50 H          20.3076   10.6525   -5.0550 H       1  UNL1        0.0444
     51 H          20.1009   11.8546   -7.7176 H       1  UNL1        0.1183
     52 H          21.4610   11.8540   -6.7559 H       1  UNL1        0.1183
@<TRIPOS>BOND
     1     1     2    1
     2     2     3    1
     3     3     4    1
     4     4     5    1
     5     5     6    1
     6     6     7    1
     7     7     8    1
     8     8     9    1
     9     9    10    1
    10    10    11    1
    11    11    12    1
    12    12    13    1
    13    13    14    1
    14    14    15    1
    15    15    16    1
    16    16    17    1
    17    17    18    1
    18    18    19    1
    19    19    20    1
    20    20    21    1
    21     1    22    1
    22     1    23    1
    23     1    24    1
    24     2    25    1
    25     2    26    1
    26     4    27    1
    27     4    28    1
    28     5    29    1
    29     5    30    1
    30     7    31    1
    31     7    32    1
    32     8    33    1
    33     8    34    1
    34    10    35    1
    35    10    36    1
    36    11    37    1
    37    11    38    1
    38    13    39    1
    39    13    40    1
    40    14    41    1
    41    14    42    1
    42    16    43    1
    43    16    44    1
    44    17    45    1
    45    17    46    1
    46    19    47    1
    47    19    48    1
    48    20    49    1
    49    20    50    1
    50    21    51    1
    51    21    52    1
