@<TRIPOS>MOLECULE
*****
 28 27 0 0 0
SMALL
GASTEIGER

@<TRIPOS>ATOM
      1 C           1.0345   -0.0325    0.0881 C.3     1  UNL1       -0.0653
      2 C           2.5545   -0.0325    0.0881 C.3     1  UNL1       -0.0559
      3 C           3.0612   -0.8883    1.2376 C.3     1  UNL1       -0.0533
      4 C           4.5812   -0.8883    1.2376 C.3     1  UNL1       -0.0531
      5 C           5.0878   -1.7440    2.3871 C.3     1  UNL1       -0.0530
      6 C           6.6078   -1.7440    2.3871 C.3     1  UNL1       -0.0527
      7 C           7.1145   -2.5998    3.5366 C.3     1  UNL1       -0.0466
      8 C           8.6345   -2.5998    3.5366 C.3     1  UNL1        0.0028
      9 C           9.1411   -3.4556    4.6861 C.2     1  UNL1        0.1203
     10 O          10.3906   -3.5943    4.8723 O.2     1  UNL1       -0.3010
     11 H           0.6778    0.5699   -0.7211 H       1  UNL1        0.0230
     12 H           0.6778    0.3671    1.0144 H       1  UNL1        0.0230
     13 H           0.6778   -1.0345   -0.0291 H       1  UNL1        0.0230
     14 H           2.9112    0.9695    0.2052 H       1  UNL1        0.0263
     15 H           2.9112   -0.4321   -0.8382 H       1  UNL1        0.0263
     16 H           2.7045   -1.8903    1.1204 H       1  UNL1        0.0265
     17 H           2.7045   -0.4887    2.1639 H       1  UNL1        0.0265
     18 H           4.9378    0.1137    1.3547 H       1  UNL1        0.0265
     19 H           4.9378   -1.2878    0.3113 H       1  UNL1        0.0265
     20 H           4.7312   -2.7460    2.2699 H       1  UNL1        0.0265
     21 H           4.7312   -1.3445    3.3134 H       1  UNL1        0.0265
     22 H           6.9645   -0.7421    2.5042 H       1  UNL1        0.0265
     23 H           6.9645   -2.1436    1.4608 H       1  UNL1        0.0265
     24 H           6.7578   -3.6018    3.4194 H       1  UNL1        0.0269
     25 H           6.7578   -2.2002    4.4629 H       1  UNL1        0.0269
     26 H           8.9911   -1.5978    3.6537 H       1  UNL1        0.0339
     27 H           8.9911   -2.9994    2.6103 H       1  UNL1        0.0339
     28 H           8.4705   -3.9240    5.3152 H       1  UNL1        0.1026
@<TRIPOS>BOND
     1     1     2    1
     2     2     3    1
     3     3     4    1
     4     4     5    1
     5     5     6    1
     6     6     7    1
     7     7     8    1
     8     8     9    1
     9     9    10    2
    10     1    11    1
    11     1    12    1
    12     1    13    1
    13     2    14    1
    14     2    15    1
    15     3    16    1
    16     3    17    1
    17     4    18    1
    18     4    19    1
    19     5    20    1
    20     5    21    1
    21     6    22    1
    22     6    23    1
    23     7    24    1
    24     7    25    1
    25     8    26    1
    26     8    27    1
    27     9    28    1
