@<TRIPOS>MOLECULE
*****
 53 53 0 0 0
SMALL
GASTEIGER

@<TRIPOS>ATOM
      1 N           1.0082   -0.0976    0.0203 N.3     1  UNL1       -0.3279
      2 C           2.4782   -0.0976    0.0203 C.3     1  UNL1        0.0166
      3 C           2.9849   -1.1369    1.0069 C.3     1  UNL1        0.0600
      4 O           4.4049   -1.1369    1.0069 O.3     1  UNL1       -0.3763
      5 C           4.8782   -2.1079    1.9286 C.3     1  UNL1        0.0711
      6 C           6.3982   -2.1079    1.9286 C.3     1  UNL1        0.0711
      7 O           6.8715   -3.0789    2.8503 O.3     1  UNL1       -0.3752
      8 C           8.2915   -3.0789    2.8503 C.3     1  UNL1        0.0711
      9 C           8.7982   -4.1183    3.8369 C.3     1  UNL1        0.0711
     10 O          10.2182   -4.1183    3.8369 O.3     1  UNL1       -0.3757
     11 C          10.6915   -5.0893    4.7586 C.3     1  UNL1        0.0673
     12 C          12.2115   -5.0893    4.7586 C.3     1  UNL1        0.0665
     13 N          12.7015   -6.0945    5.7128 N.ar    1  UNL1       -0.2492
     14 C          14.0709   -6.2791    5.8880 C.ar    1  UNL1        0.0487
     15 C          14.5510   -7.2639    6.8228 C.ar    1  UNL1        0.0828
     16 C          13.5632   -8.1018    7.6182 C.3     1  UNL1       -0.0071
     17 C          12.1447   -7.7057    7.2422 C.3     1  UNL1       -0.0475
     18 C          11.1570   -8.5436    8.0376 C.3     1  UNL1       -0.0506
     19 C           9.7385   -8.1475    7.6616 C.3     1  UNL1       -0.0297
     20 C           8.7507   -8.9854    8.4570 C.3     1  UNL1        0.0442
     21 O           7.4256   -8.6153    8.1057 O.3     1  UNL1       -0.3950
     22 N          15.9203   -7.4485    6.9980 N.ar    1  UNL1       -0.1345
     23 N          11.8272   -6.8362    6.4168 N.ar    1  UNL1       -0.0654
     24 H           0.6682    0.5999   -0.6418 H       1  UNL1        0.1183
     25 H           0.6682    0.1271    0.9553 H       1  UNL1        0.1183
     26 H           2.8349    0.8697    0.3067 H       1  UNL1        0.0444
     27 H           2.8349   -0.3332   -0.9606 H       1  UNL1        0.0444
     28 H           2.6282   -2.1043    0.7205 H       1  UNL1        0.0572
     29 H           2.6282   -0.9013    1.9878 H       1  UNL1        0.0572
     30 H           4.5215   -3.0752    1.6422 H       1  UNL1        0.0583
     31 H           4.5215   -1.8723    2.9095 H       1  UNL1        0.0583
     32 H           6.7549   -1.1406    2.2150 H       1  UNL1        0.0583
     33 H           6.7549   -2.3436    0.9477 H       1  UNL1        0.0583
     34 H           8.6482   -2.1116    3.1367 H       1  UNL1        0.0583
     35 H           8.6482   -3.3146    1.8694 H       1  UNL1        0.0583
     36 H           8.4415   -5.0856    3.5505 H       1  UNL1        0.0583
     37 H           8.4415   -3.8827    4.8178 H       1  UNL1        0.0583
     38 H          10.3349   -6.0566    4.4722 H       1  UNL1        0.0578
     39 H          10.3349   -4.8536    5.7395 H       1  UNL1        0.0578
     40 H          12.5682   -4.1220    5.0450 H       1  UNL1        0.0532
     41 H          12.5682   -5.3249    3.7777 H       1  UNL1        0.0532
     42 H          14.7415   -5.7102    5.3480 H       1  UNL1        0.0845
     43 H          13.7148   -7.9347    8.6641 H       1  UNL1        0.0329
     44 H          13.7148   -9.1376    7.3969 H       1  UNL1        0.0329
     45 H          11.9931   -7.8728    6.1963 H       1  UNL1        0.0269
     46 H          11.9931   -6.6698    7.4635 H       1  UNL1        0.0269
     47 H          11.3086   -8.3765    9.0835 H       1  UNL1        0.0266
     48 H          11.3086   -9.5794    7.8163 H       1  UNL1        0.0266
     49 H           9.5869   -8.3146    6.6156 H       1  UNL1        0.0287
     50 H           9.5869   -7.1117    7.8829 H       1  UNL1        0.0287
     51 H           8.9024   -8.8183    9.5029 H       1  UNL1        0.0557
     52 H           8.9024  -10.0212    8.2356 H       1  UNL1        0.0557
     53 H           7.2881   -7.6763    8.3064 H       1  UNL1        0.2094
@<TRIPOS>BOND
     1     1     2    1
     2     2     3    1
     3     3     4    1
     4     4     5    1
     5     5     6    1
     6     6     7    1
     7     7     8    1
     8     8     9    1
     9     9    10    1
    10    10    11    1
    11    11    12    1
    12    12    13    1
    13    13    14   ar
    14    14    15   ar
    15    15    16    1
    16    16    17    1
    17    17    18    1
    18    18    19    1
    19    19    20    1
    20    20    21    1
    21    15    22   ar
    22    22    23   ar
    23    13    23   ar
    24     1    24    1
    25     1    25    1
    26     2    26    1
    27     2    27    1
    28     3    28    1
    29     3    29    1
    30     5    30    1
    31     5    31    1
    32     6    32    1
    33     6    33    1
    34     8    34    1
    35     8    35    1
    36     9    36    1
    37     9    37    1
    38    11    38    1
    39    11    39    1
    40    12    40    1
    41    12    41    1
    42    14    42    1
    43    16    43    1
    44    16    44    1
    45    17    45    1
    46    17    46    1
    47    18    47    1
    48    18    48    1
    49    19    49    1
    50    19    50    1
    51    20    51    1
    52    20    52    1
    53    21    53    1
