@<TRIPOS>MOLECULE
*****
 36 35 0 0 0
SMALL
GASTEIGER

@<TRIPOS>ATOM
      1 C           1.0257    0.0949    0.0182 C.3     1  UNL1       -0.0653
      2 C           2.5457    0.0949    0.0182 C.3     1  UNL1       -0.0559
      3 C           3.0524    1.0201   -1.0762 C.3     1  UNL1       -0.0533
      4 C           4.5724    1.0201   -1.0762 C.3     1  UNL1       -0.0530
      5 C           5.0790    1.9452   -2.1706 C.3     1  UNL1       -0.0516
      6 C           6.5990    1.9452   -2.1706 C.3     1  UNL1       -0.0374
      7 C           7.1057    2.8704   -3.2651 C.3     1  UNL1        0.0116
      8 N           8.5757    2.8704   -3.2651 N.am    1  UNL1       -0.3153
      9 C           9.3107    3.6922   -4.2373 C.2     1  UNL1        0.2130
     10 O           8.6752    4.4027   -5.0779 O.2     1  UNL1       -0.2758
     11 C          10.8307    3.6922   -4.2373 C.3     1  UNL1        0.0237
     12 C          11.3373    4.6174   -5.3317 C.3     1  UNL1       -0.0476
     13 C          12.8573    4.6174   -5.3317 C.3     1  UNL1       -0.0648
     14 H           0.6690   -0.5564    0.7887 H       1  UNL1        0.0230
     15 H           0.6690   -0.2467   -0.9310 H       1  UNL1        0.0230
     16 H           0.6690    1.0877    0.1970 H       1  UNL1        0.0230
     17 H           2.9024   -0.8979   -0.1606 H       1  UNL1        0.0263
     18 H           2.9024    0.4365    0.9675 H       1  UNL1        0.0263
     19 H           2.6957    2.0129   -0.8974 H       1  UNL1        0.0265
     20 H           2.6957    0.6785   -2.0254 H       1  UNL1        0.0265
     21 H           4.9290    0.0272   -1.2550 H       1  UNL1        0.0265
     22 H           4.9290    1.3616   -0.1270 H       1  UNL1        0.0265
     23 H           4.7223    2.9380   -1.9918 H       1  UNL1        0.0266
     24 H           4.7223    1.6036   -3.1198 H       1  UNL1        0.0266
     25 H           6.9557    0.9524   -2.3494 H       1  UNL1        0.0280
     26 H           6.9557    2.2868   -1.2214 H       1  UNL1        0.0280
     27 H           6.7490    3.8632   -3.0863 H       1  UNL1        0.0462
     28 H           6.7490    2.5288   -4.2143 H       1  UNL1        0.0462
     29 H           9.0679    2.3199   -2.6139 H       1  UNL1        0.1487
     30 H          11.1873    2.6994   -4.4161 H       1  UNL1        0.0358
     31 H          11.1873    4.0338   -3.2881 H       1  UNL1        0.0358
     32 H          10.9807    5.6102   -5.1529 H       1  UNL1        0.0267
     33 H          10.9807    4.2758   -6.2810 H       1  UNL1        0.0267
     34 H          13.2140    4.9589   -4.3825 H       1  UNL1        0.0230
     35 H          13.2140    5.2686   -6.1022 H       1  UNL1        0.0230
     36 H          13.2140    3.6245   -5.5105 H       1  UNL1        0.0230
@<TRIPOS>BOND
     1     1     2    1
     2     2     3    1
     3     3     4    1
     4     4     5    1
     5     5     6    1
     6     6     7    1
     7     7     8    1
     8     8     9   am
     9     9    10    2
    10     9    11    1
    11    11    12    1
    12    12    13    1
    13     1    14    1
    14     1    15    1
    15     1    16    1
    16     2    17    1
    17     2    18    1
    18     3    19    1
    19     3    20    1
    20     4    21    1
    21     4    22    1
    22     5    23    1
    23     5    24    1
    24     6    25    1
    25     6    26    1
    26     7    27    1
    27     7    28    1
    28     8    29    1
    29    11    30    1
    30    11    31    1
    31    12    32    1
    32    12    33    1
    33    13    34    1
    34    13    35    1
    35    13    36    1
