@<TRIPOS>MOLECULE
*****
 61 63 0 0 0
SMALL
GASTEIGER

@<TRIPOS>ATOM
      1 C           1.0626   -0.0635    0.0452 C.3     1  UNL1       -0.0652
      2 C           2.5826   -0.0635    0.0452 C.3     1  UNL1       -0.0545
      3 C           3.0893    1.0988    0.8834 C.3     1  UNL1       -0.0373
      4 C           4.6093    1.0988    0.8834 C.3     1  UNL1        0.0165
      5 N           5.0993    2.2229    1.6941 N.am    1  UNL1       -0.2811
      6 C           4.1440    3.1291    2.3477 C.3     1  UNL1        0.0412
      7 C           2.7255    2.6861    2.0282 C.ar    1  UNL1       -0.0301
      8 C           1.6054    3.4203    2.5577 C.ar    1  UNL1       -0.0571
      9 C           0.2614    3.0006    2.2550 C.ar    1  UNL1       -0.0615
     10 C          -0.8588    3.7348    2.7845 C.ar    1  UNL1       -0.0617
     11 C          -2.2028    3.3151    2.4818 C.ar    1  UNL1       -0.0615
     12 C           2.5017    1.5322    1.1960 C.ar    1  UNL1       -0.0571
     13 C           6.5445    2.4407    1.8512 C.2     1  UNL1        0.3067
     14 O           7.3704    1.6573    1.2862 O.2     1  UNL1       -0.2523
     15 N           7.0345    3.5648    2.6619 N.am    1  UNL1       -0.2693
     16 C           8.4798    3.7827    2.8191 C.ar    1  UNL1        0.0350
     17 C           8.9598    4.8840    3.6133 C.ar    1  UNL1       -0.0370
     18 C          10.3758    5.0975    3.7673 C.ar    1  UNL1       -0.0182
     19 C          10.8559    6.1988    4.5615 C.ar    1  UNL1        0.1207
     20 O           9.9331    7.0742    5.1929 O.3     1  UNL1       -0.4901
     21 C           8.5370    6.8637    5.0411 C.3     1  UNL1        0.1091
     22 C           7.7770    7.9314    5.8111 C.3     1  UNL1        0.0772
     23 N           6.3318    7.7135    5.6540 N.ar    1  UNL1       -0.2481
     24 C           5.4267    8.5721    6.2732 C.ar    1  UNL1        0.0500
     25 C           4.0107    8.3587    6.1193 C.ar    1  UNL1        0.0963
     26 C           3.5040    7.1964    5.2810 C.3     1  UNL1        0.0393
     27 N           4.6474    6.4470    4.7405 N.3     1  UNL1       -0.3248
     28 N           3.1056    9.2173    6.7385 N.ar    1  UNL1       -0.1332
     29 N           5.8833    6.6847    4.9119 N.ar    1  UNL1       -0.0653
     30 C          12.2718    6.4122    4.7155 C.ar    1  UNL1       -0.0182
     31 C           9.4157    2.8949    2.1788 C.ar    1  UNL1       -0.0370
     32 H           0.7060   -0.8818   -0.5449 H       1  UNL1        0.0230
     33 H           0.7060    0.8566   -0.3684 H       1  UNL1        0.0230
     34 H           0.7060   -0.1655    1.0488 H       1  UNL1        0.0230
     35 H           2.9393    0.0384   -0.9585 H       1  UNL1        0.0263
     36 H           2.9393   -0.9837    0.4587 H       1  UNL1        0.0263
     37 H           2.7326    0.9969    1.8871 H       1  UNL1        0.0280
     38 H           2.7326    2.0189    0.4699 H       1  UNL1        0.0280
     39 H           4.9660    1.2007   -0.1202 H       1  UNL1        0.0465
     40 H           4.9660    0.1786    1.2970 H       1  UNL1        0.0465
     41 H           4.2956    4.1259    1.9894 H       1  UNL1        0.0514
     42 H           4.2956    3.1038    3.4066 H       1  UNL1        0.0514
     43 H           1.7658    4.2472    3.1540 H       1  UNL1        0.0621
     44 H           0.1010    2.1738    1.6587 H       1  UNL1        0.0618
     45 H          -0.6984    4.5617    3.3808 H       1  UNL1        0.0618
     46 H          -3.2342    3.3442    2.5028 H       1  UNL1        0.0618
     47 H           2.9863    0.7932    0.6631 H       1  UNL1        0.0621
     48 H           6.3948    4.1718    3.0997 H       1  UNL1        0.1564
     49 H           8.2892    5.5202    4.0722 H       1  UNL1        0.0637
     50 H          11.0464    4.4613    3.3084 H       1  UNL1        0.0655
     51 H           8.2785    5.8976    5.4215 H       1  UNL1        0.0715
     52 H           8.2785    6.9197    4.0043 H       1  UNL1        0.0715
     53 H           8.0355    8.8975    5.4307 H       1  UNL1        0.0543
     54 H           8.0355    7.8754    6.8479 H       1  UNL1        0.0543
     55 H           5.7706    9.3613    6.8423 H       1  UNL1        0.0846
     56 H           2.9096    7.5710    4.4741 H       1  UNL1        0.0488
     57 H           2.9096    6.5490    5.8912 H       1  UNL1        0.0488
     58 H           5.2140    7.0641    4.1588 H       1  UNL1        0.1186
     59 H           4.3074    5.6670    4.1780 H       1  UNL1        0.1186
     60 H          13.1316    6.8752    5.0494 H       1  UNL1        0.0655
     61 H           9.4801    2.0595    1.5763 H       1  UNL1        0.0637
@<TRIPOS>BOND
     1     1     2    1
     2     2     3    1
     3     3     4    1
     4     4     5    1
     5     5     6    1
     6     6     7    1
     7     7     8   ar
     8     8     9   ar
     9     9    10   ar
    10    10    11   ar
    11    11    12   ar
    12     7    12   ar
    13     5    13   am
    14    13    14    2
    15    13    15   am
    16    15    16    1
    17    16    17   ar
    18    17    18   ar
    19    18    19   ar
    20    19    20    1
    21    20    21    1
    22    21    22    1
    23    22    23    1
    24    23    24   ar
    25    24    25   ar
    26    25    26    1
    27    26    27    1
    28    25    28   ar
    29    28    29   ar
    30    23    29   ar
    31    19    30   ar
    32    30    31   ar
    33    16    31   ar
    34     1    32    1
    35     1    33    1
    36     1    34    1
    37     2    35    1
    38     2    36    1
    39     3    37    1
    40     3    38    1
    41     4    39    1
    42     4    40    1
    43     6    41    1
    44     6    42    1
    45     8    43    1
    46     9    44    1
    47    10    45    1
    48    11    46    1
    49    12    47    1
    50    15    48    1
    51    17    49    1
    52    18    50    1
    53    21    51    1
    54    21    52    1
    55    22    53    1
    56    22    54    1
    57    24    55    1
    58    26    56    1
    59    26    57    1
    60    27    58    1
    61    27    59    1
    62    30    60    1
    63    31    61    1
