@<TRIPOS>MOLECULE
*****
 39 39 0 0 0
SMALL
GASTEIGER

@<TRIPOS>ATOM
      1 C           1.0712   -0.0652   -0.0261 C.3     1  UNL1       -0.0416
      2 C           2.5912   -0.0652   -0.0261 C.3     1  UNL1        0.0449
      3 O           3.0645    0.0535    1.3074 O.3     1  UNL1       -0.3778
      4 C           4.4845    0.0535    1.3074 C.3     1  UNL1        0.0710
      5 C           4.9912    0.1806    2.7348 C.3     1  UNL1        0.0711
      6 O           6.4112    0.1806    2.7348 O.3     1  UNL1       -0.3752
      7 C           6.8845    0.2993    4.0683 C.3     1  UNL1        0.0711
      8 C           8.4045    0.2993    4.0683 C.3     1  UNL1        0.0711
      9 O           8.8778    0.4181    5.4019 O.3     1  UNL1       -0.3757
     10 C          10.2978    0.4181    5.4019 C.3     1  UNL1        0.0673
     11 C          10.8045    0.5451    6.8293 C.3     1  UNL1        0.0665
     12 N          12.2745    0.5451    6.8293 N.ar    1  UNL1       -0.2488
     13 C          12.9709    0.6521    8.0308 C.ar    1  UNL1        0.0580
     14 C          14.4111    0.6521    8.0308 C.ar    1  UNL1        0.1666
     15 C          15.1711    0.5354    6.7196 C.2     1  UNL1        0.2632
     16 N          16.6411    0.5354    6.7196 N.am    1  UNL1       -0.3240
     17 O          14.5356    0.4378    5.6233 O.2     1  UNL1       -0.2686
     18 N          15.1075    0.7591    9.2322 N.ar    1  UNL1       -0.1248
     19 N          12.9472    0.4418    5.6687 N.ar    1  UNL1       -0.0649
     20 H           0.7145   -0.1547   -1.0309 H       1  UNL1        0.0252
     21 H           0.7145    0.8497    0.3988 H       1  UNL1        0.0252
     22 H           0.7145   -0.8907    0.5538 H       1  UNL1        0.0252
     23 H           2.9478    0.7603   -0.6060 H       1  UNL1        0.0557
     24 H           2.9478   -0.9802   -0.4511 H       1  UNL1        0.0557
     25 H           4.8412    0.8790    0.7275 H       1  UNL1        0.0583
     26 H           4.8412   -0.8614    0.8825 H       1  UNL1        0.0583
     27 H           4.6345   -0.6449    3.3147 H       1  UNL1        0.0583
     28 H           4.6345    1.0955    3.1598 H       1  UNL1        0.0583
     29 H           6.5278   -0.5262    4.6482 H       1  UNL1        0.0583
     30 H           6.5278    1.2143    4.4933 H       1  UNL1        0.0583
     31 H           8.7612    1.1248    3.4884 H       1  UNL1        0.0583
     32 H           8.7612   -0.6156    3.6434 H       1  UNL1        0.0583
     33 H          10.6545    1.2435    4.8220 H       1  UNL1        0.0578
     34 H          10.6545   -0.4969    4.9769 H       1  UNL1        0.0578
     35 H          10.4478   -0.2803    7.4092 H       1  UNL1        0.0532
     36 H          10.4478    1.4601    7.2542 H       1  UNL1        0.0532
     37 H          12.4549    0.7314    8.9210 H       1  UNL1        0.0850
     38 H          17.1333    0.6110    7.5688 H       1  UNL1        0.1453
     39 H          17.1333    0.4598    5.8703 H       1  UNL1        0.1453
@<TRIPOS>BOND
     1     1     2    1
     2     2     3    1
     3     3     4    1
     4     4     5    1
     5     5     6    1
     6     6     7    1
     7     7     8    1
     8     8     9    1
     9     9    10    1
    10    10    11    1
    11    11    12    1
    12    12    13   ar
    13    13    14   ar
    14    14    15    1
    15    15    16   am
    16    15    17    2
    17    14    18   ar
    18    18    19   ar
    19    12    19   ar
    20     1    20    1
    21     1    21    1
    22     1    22    1
    23     2    23    1
    24     2    24    1
    25     4    25    1
    26     4    26    1
    27     5    27    1
    28     5    28    1
    29     7    29    1
    30     7    30    1
    31     8    31    1
    32     8    32    1
    33    10    33    1
    34    10    34    1
    35    11    35    1
    36    11    36    1
    37    13    37    1
    38    16    38    1
    39    16    39    1
