@<TRIPOS>MOLECULE
*****
 47 47 0 0 0
SMALL
GASTEIGER

@<TRIPOS>ATOM
      1 N           1.0954    0.0271    0.0128 N.3     1  UNL1       -0.3279
      2 C           2.5654    0.0271    0.0128 C.3     1  UNL1        0.0166
      3 C           3.0721    0.8670   -1.1483 C.3     1  UNL1        0.0600
      4 O           4.4921    0.8670   -1.1483 O.3     1  UNL1       -0.3763
      5 C           4.9654    1.6517   -2.2331 C.3     1  UNL1        0.0711
      6 C           6.4854    1.6517   -2.2331 C.3     1  UNL1        0.0711
      7 O           6.9587    2.4363   -3.3178 O.3     1  UNL1       -0.3752
      8 C           8.3787    2.4363   -3.3178 C.3     1  UNL1        0.0711
      9 C           8.8854    3.2763   -4.4789 C.3     1  UNL1        0.0711
     10 O          10.3054    3.2763   -4.4789 O.3     1  UNL1       -0.3757
     11 C          10.7787    4.0610   -5.5637 C.3     1  UNL1        0.0673
     12 C          12.2987    4.0610   -5.5637 C.3     1  UNL1        0.0665
     13 N          12.7887    4.8733   -6.6866 N.ar    1  UNL1       -0.2492
     14 C          14.1581    5.0224   -6.8928 C.ar    1  UNL1        0.0487
     15 C          14.6382    5.8183   -7.9930 C.ar    1  UNL1        0.0829
     16 C          13.6504    6.4954   -8.9290 C.3     1  UNL1       -0.0051
     17 C          12.2319    6.1753   -8.4865 C.3     1  UNL1       -0.0242
     18 C          11.2442    6.8525   -9.4226 C.3     1  UNL1        0.0446
     19 O           9.9190    6.5534   -9.0092 O.3     1  UNL1       -0.3950
     20 N          16.0075    5.9674   -8.1992 N.ar    1  UNL1       -0.1345
     21 N          11.9144    5.4726   -7.5152 N.ar    1  UNL1       -0.0654
     22 H           0.7554   -0.5366    0.7920 H       1  UNL1        0.1183
     23 H           0.7554   -0.3659   -0.8649 H       1  UNL1        0.1183
     24 H           2.9221   -0.9764   -0.0906 H       1  UNL1        0.0444
     25 H           2.9221    0.4393    0.9335 H       1  UNL1        0.0444
     26 H           2.7154    1.8705   -1.0450 H       1  UNL1        0.0572
     27 H           2.7154    0.4548   -2.0691 H       1  UNL1        0.0572
     28 H           4.6087    2.6552   -2.1297 H       1  UNL1        0.0583
     29 H           4.6087    1.2394   -3.1538 H       1  UNL1        0.0583
     30 H           6.8421    0.6482   -2.3364 H       1  UNL1        0.0583
     31 H           6.8421    2.0639   -1.3123 H       1  UNL1        0.0583
     32 H           8.7354    1.4329   -3.4212 H       1  UNL1        0.0583
     33 H           8.7354    2.8486   -2.3971 H       1  UNL1        0.0583
     34 H           8.5287    4.2798   -4.3756 H       1  UNL1        0.0583
     35 H           8.5287    2.8641   -5.3997 H       1  UNL1        0.0583
     36 H          10.4221    5.0645   -5.4603 H       1  UNL1        0.0578
     37 H          10.4221    3.6487   -6.4844 H       1  UNL1        0.0578
     38 H          12.6554    3.0575   -5.6670 H       1  UNL1        0.0532
     39 H          12.6554    4.4732   -4.6429 H       1  UNL1        0.0532
     40 H          14.8287    4.5627   -6.2573 H       1  UNL1        0.0845
     41 H          13.8020    6.1386   -9.9263 H       1  UNL1        0.0330
     42 H          13.8020    7.5543   -8.9022 H       1  UNL1        0.0330
     43 H          12.0803    6.5322   -7.4892 H       1  UNL1        0.0291
     44 H          12.0803    5.1164   -8.5133 H       1  UNL1        0.0291
     45 H          11.3958    6.4956  -10.4199 H       1  UNL1        0.0557
     46 H          11.3958    7.9113   -9.3958 H       1  UNL1        0.0557
     47 H           9.7816    5.5935   -9.0335 H       1  UNL1        0.2094
@<TRIPOS>BOND
     1     1     2    1
     2     2     3    1
     3     3     4    1
     4     4     5    1
     5     5     6    1
     6     6     7    1
     7     7     8    1
     8     8     9    1
     9     9    10    1
    10    10    11    1
    11    11    12    1
    12    12    13    1
    13    13    14   ar
    14    14    15   ar
    15    15    16    1
    16    16    17    1
    17    17    18    1
    18    18    19    1
    19    15    20   ar
    20    20    21   ar
    21    13    21   ar
    22     1    22    1
    23     1    23    1
    24     2    24    1
    25     2    25    1
    26     3    26    1
    27     3    27    1
    28     5    28    1
    29     5    29    1
    30     6    30    1
    31     6    31    1
    32     8    32    1
    33     8    33    1
    34     9    34    1
    35     9    35    1
    36    11    36    1
    37    11    37    1
    38    12    38    1
    39    12    39    1
    40    14    40    1
    41    16    41    1
    42    16    42    1
    43    17    43    1
    44    17    44    1
    45    18    45    1
    46    18    46    1
    47    19    47    1
