@<TRIPOS>MOLECULE
*****
 28 28 0 0 0
SMALL
GASTEIGER

@<TRIPOS>ATOM
      1 C           1.0676    0.0466   -0.0571 C.3     1  UNL1       -0.0650
      2 C           2.5876    0.0466   -0.0571 C.3     1  UNL1       -0.0519
      3 C           3.0942   -0.0966   -1.4830 C.3     1  UNL1       -0.0279
      4 C           4.6142   -0.0966   -1.4830 C.ar    1  UNL1       -0.0473
      5 C           5.3343   -0.2213   -2.7240 C.ar    1  UNL1       -0.0568
      6 C           6.7745   -0.2213   -2.7240 C.ar    1  UNL1       -0.0402
      7 C           7.4946   -0.3460   -3.9650 C.ar    1  UNL1        0.0334
      8 N           6.7596   -0.4733   -5.2317 N.am    1  UNL1       -0.2857
      9 C           5.2896   -0.4733   -5.2317 C.2     1  UNL1        0.2141
     10 C           4.5296   -0.3417   -3.9219 C.3     1  UNL1        0.0125
     11 O           4.6542   -0.5833   -6.3268 O.2     1  UNL1       -0.2758
     12 C           8.9348   -0.3460   -3.9650 C.ar    1  UNL1       -0.0402
     13 C           5.3343    0.0280   -0.2420 C.ar    1  UNL1       -0.0568
     14 H           0.7109    0.1475    0.9466 H       1  UNL1        0.0230
     15 H           0.7109   -0.8731   -0.4717 H       1  UNL1        0.0230
     16 H           0.7109    0.8655   -0.6463 H       1  UNL1        0.0230
     17 H           2.9442   -0.7722    0.5321 H       1  UNL1        0.0266
     18 H           2.9442    0.9663    0.3574 H       1  UNL1        0.0266
     19 H           2.7375    0.7222   -2.0722 H       1  UNL1        0.0313
     20 H           2.7375   -1.0163   -1.8976 H       1  UNL1        0.0313
     21 H           4.8183   -0.3107   -3.6133 H       1  UNL1        0.0621
     22 H           7.2905   -0.1320   -1.8348 H       1  UNL1        0.0636
     23 H           7.2519   -0.5585   -6.0800 H       1  UNL1        0.1548
     24 H           5.2249   -0.2604   -3.1127 H       1  UNL1        0.0323
     25 H           3.9145   -1.2053   -3.7782 H       1  UNL1        0.0323
     26 H           3.9145    0.5333   -3.9529 H       1  UNL1        0.0323
     27 H           9.8844   -0.3864   -4.3671 H       1  UNL1        0.0636
     28 H           5.2095    0.1304    0.7773 H       1  UNL1        0.0621
@<TRIPOS>BOND
     1     1     2    1
     2     2     3    1
     3     3     4    1
     4     4     5   ar
     5     5     6   ar
     6     6     7   ar
     7     7     8    1
     8     8     9   am
     9     9    10    1
    10     9    11    2
    11     7    12   ar
    12    12    13   ar
    13     4    13   ar
    14     1    14    1
    15     1    15    1
    16     1    16    1
    17     2    17    1
    18     2    18    1
    19     3    19    1
    20     3    20    1
    21     5    21    1
    22     6    22    1
    23     8    23    1
    24    10    24    1
    25    10    25    1
    26    10    26    1
    27    12    27    1
    28    13    28    1
