@<TRIPOS>MOLECULE
*****
 37 39 0 0 0
SMALL
GASTEIGER

@<TRIPOS>ATOM
      1 O           1.0565    0.0743    0.0357 O.2     1  UNL1       -0.2700
      2 C           2.3274    0.0743    0.0357 C.2     1  UNL1        0.2467
      3 C           3.0874   -1.1846    0.4203 C.ar    1  UNL1        0.0369
      4 C           2.3673   -2.3774    0.7847 C.ar    1  UNL1       -0.0496
      5 C           3.0874   -3.5702    1.1492 C.ar    1  UNL1       -0.0610
      6 C           2.3673   -4.7631    1.5136 C.ar    1  UNL1       -0.0617
      7 C           3.0874   -5.9559    1.8780 C.ar    1  UNL1       -0.0610
      8 C           4.5276   -1.1846    0.4203 C.ar    1  UNL1       -0.0496
      9 N           3.0624    1.2918   -0.3362 N.am    1  UNL1       -0.2951
     10 C           4.5324    1.2918   -0.3362 C.3     1  UNL1        0.0278
     11 C           5.0391    2.6624   -0.7549 C.3     1  UNL1        0.0151
     12 N           6.5091    2.6624   -0.7549 N.3     1  UNL1       -0.2940
     13 C           6.9991    1.6490   -1.7003 C.3     1  UNL1        0.0355
     14 C           6.4924    0.2784   -1.2816 C.3     1  UNL1        0.0128
     15 N           6.9824   -0.7350   -2.2270 N.3     1  UNL1       -0.3129
     16 C           8.5191    1.6490   -1.7003 C.3     1  UNL1        0.0128
     17 C           6.9991    3.9878   -1.1598 C.3     1  UNL1        0.0151
     18 C           2.3274    2.5094   -0.7081 C.3     1  UNL1        0.0278
     19 H           1.3353   -2.3774    0.7847 H       1  UNL1        0.0625
     20 H           4.1194   -3.5702    1.1492 H       1  UNL1        0.0618
     21 H           1.3353   -4.7631    1.5136 H       1  UNL1        0.0618
     22 H           3.2123   -6.9356    2.1773 H       1  UNL1        0.0618
     23 H           5.3524   -0.5913    0.2391 H       1  UNL1        0.0625
     24 H           4.8891    0.5542   -1.0244 H       1  UNL1        0.0477
     25 H           4.8891    1.0647    0.6467 H       1  UNL1        0.0477
     26 H           4.6824    3.4000   -0.0667 H       1  UNL1        0.0442
     27 H           4.6824    2.8895   -1.7378 H       1  UNL1        0.0442
     28 H           6.6424    1.8761   -2.6832 H       1  UNL1        0.0488
     29 H           5.4224    0.2784   -1.2816 H       1  UNL1        0.0440
     30 H           6.8491    0.0513   -0.2987 H       1  UNL1        0.0440
     31 H           6.5223   -0.8582   -3.1290 H       1  UNL1        0.1220
     32 H           9.0599    2.1291   -2.4890 H       1  UNL1        0.0440
     33 H           9.2880    1.9317   -1.0120 H       1  UNL1        0.0440
     34 H           7.4403    4.1461   -2.1217 H       1  UNL1        0.0442
     35 H           7.6340    4.7569   -0.7720 H       1  UNL1        0.0442
     36 H           1.7501    2.4643   -1.6079 H       1  UNL1        0.0477
     37 H           1.5613    2.9892   -0.1358 H       1  UNL1        0.0477
@<TRIPOS>BOND
     1     1     2    2
     2     2     3    1
     3     3     4   ar
     4     4     5   ar
     5     5     6   ar
     6     6     7   ar
     7     7     8   ar
     8     3     8   ar
     9     2     9   am
    10     9    10    1
    11    10    11    1
    12    11    12    1
    13    12    13    1
    14    13    14    1
    15    14    15    1
    16    15    16    1
    17    13    16    1
    18    12    17    1
    19    17    18    1
    20     9    18    1
    21     4    19    1
    22     5    20    1
    23     6    21    1
    24     7    22    1
    25     8    23    1
    26    10    24    1
    27    10    25    1
    28    11    26    1
    29    11    27    1
    30    13    28    1
    31    14    29    1
    32    14    30    1
    33    15    31    1
    34    16    32    1
    35    16    33    1
    36    17    34    1
    37    17    35    1
    38    18    36    1
    39    18    37    1
