@<TRIPOS>MOLECULE
*****
 39 39 0 0 0
SMALL
GASTEIGER

@<TRIPOS>ATOM
      1 C           1.0756   -0.0607   -0.0244 C.1     1  UNL1       -0.1169
      2 C           2.3795   -0.0607   -0.0244 C.1     1  UNL1       -0.0773
      3 C           3.8995   -0.0607   -0.0244 C.3     1  UNL1        0.1080
      4 O           4.3728   -1.1174   -0.8464 O.3     1  UNL1       -0.3673
      5 C           5.7928   -1.1174   -0.8464 C.3     1  UNL1        0.0489
      6 C           6.2995   -2.2485   -1.7264 C.3     1  UNL1       -0.0294
      7 C           7.8195   -2.2485   -1.7264 C.3     1  UNL1       -0.0493
      8 C           8.3261   -3.3796   -2.6063 C.3     1  UNL1       -0.0332
      9 C           9.8461   -3.3796   -2.6063 C.3     1  UNL1        0.0432
     10 N          10.3361   -4.4735   -3.4574 N.ar    1  UNL1       -0.2515
     11 C          11.7055   -4.6744   -3.6136 C.ar    1  UNL1        0.0486
     12 C          12.1856   -5.7461   -4.4474 C.ar    1  UNL1        0.0829
     13 C          11.1978   -6.6580   -5.1568 C.3     1  UNL1       -0.0051
     14 C           9.7793   -6.2269   -4.8214 C.3     1  UNL1       -0.0242
     15 C           8.7916   -7.1388   -5.5308 C.3     1  UNL1        0.0446
     16 O           7.4664   -6.7360   -5.2175 O.3     1  UNL1       -0.3950
     17 N          13.5549   -5.9470   -4.6037 N.ar    1  UNL1       -0.1345
     18 N           9.4618   -5.2806   -4.0853 N.ar    1  UNL1       -0.0655
     19 H           0.0816   -0.0607   -0.0244 H       1  UNL1        0.1229
     20 H           4.2561   -0.1991    0.9749 H       1  UNL1        0.0697
     21 H           4.2561    0.8738   -0.4042 H       1  UNL1        0.0697
     22 H           6.1495   -1.2557    0.1528 H       1  UNL1        0.0560
     23 H           6.1495   -0.1828   -1.2263 H       1  UNL1        0.0560
     24 H           5.9428   -2.1102   -2.7257 H       1  UNL1        0.0287
     25 H           5.9428   -3.1831   -1.3466 H       1  UNL1        0.0287
     26 H           8.1761   -2.3868   -0.7271 H       1  UNL1        0.0267
     27 H           8.1761   -1.3139   -2.1062 H       1  UNL1        0.0267
     28 H           7.9695   -3.2413   -3.6056 H       1  UNL1        0.0283
     29 H           7.9695   -4.3142   -2.2265 H       1  UNL1        0.0283
     30 H          10.2028   -3.5179   -1.6071 H       1  UNL1        0.0509
     31 H          10.2028   -2.4450   -2.9862 H       1  UNL1        0.0509
     32 H          12.3761   -4.0553   -3.1320 H       1  UNL1        0.0845
     33 H          11.3494   -7.6671   -4.8350 H       1  UNL1        0.0330
     34 H          11.3494   -6.5942   -6.2141 H       1  UNL1        0.0330
     35 H           9.6277   -5.2178   -5.1433 H       1  UNL1        0.0291
     36 H           9.6277   -6.2907   -3.7642 H       1  UNL1        0.0291
     37 H           8.9432   -8.1479   -5.2090 H       1  UNL1        0.0557
     38 H           8.9432   -7.0750   -6.5881 H       1  UNL1        0.0557
     39 H           7.3290   -6.7939   -4.2591 H       1  UNL1        0.2094
@<TRIPOS>BOND
     1     1     2    3
     2     2     3    1
     3     3     4    1
     4     4     5    1
     5     5     6    1
     6     6     7    1
     7     7     8    1
     8     8     9    1
     9     9    10    1
    10    10    11   ar
    11    11    12   ar
    12    12    13    1
    13    13    14    1
    14    14    15    1
    15    15    16    1
    16    12    17   ar
    17    17    18   ar
    18    10    18   ar
    19     1    19    1
    20     3    20    1
    21     3    21    1
    22     5    22    1
    23     5    23    1
    24     6    24    1
    25     6    25    1
    26     7    26    1
    27     7    27    1
    28     8    28    1
    29     8    29    1
    30     9    30    1
    31     9    31    1
    32    11    32    1
    33    13    33    1
    34    13    34    1
    35    14    35    1
    36    14    36    1
    37    15    37    1
    38    15    38    1
    39    16    39    1
