@<TRIPOS>MOLECULE
*****
 22 21 0 0 0
SMALL
GASTEIGER

@<TRIPOS>ATOM
      1 C           1.0248   -0.0549   -0.0799 C.3     1  UNL1       -0.0653
      2 C           2.5448   -0.0549   -0.0799 C.3     1  UNL1       -0.0559
      3 C           3.0514    0.9689    0.9230 C.3     1  UNL1       -0.0533
      4 C           4.5714    0.9689    0.9230 C.3     1  UNL1       -0.0527
      5 C           5.0781    1.9926    1.9258 C.3     1  UNL1       -0.0466
      6 C           6.5981    1.9926    1.9258 C.3     1  UNL1        0.0028
      7 C           7.1048    3.0163    2.9287 C.2     1  UNL1        0.1203
      8 O           8.3543    3.1822    3.0912 O.2     1  UNL1       -0.3010
      9 H           0.6681   -0.7755   -0.7858 H       1  UNL1        0.0230
     10 H           0.6681    0.9168   -0.3510 H       1  UNL1        0.0230
     11 H           0.6681   -0.3059    0.8972 H       1  UNL1        0.0230
     12 H           2.9014    0.1962   -1.0569 H       1  UNL1        0.0263
     13 H           2.9014   -1.0265    0.1913 H       1  UNL1        0.0263
     14 H           2.6948    0.7178    1.9001 H       1  UNL1        0.0265
     15 H           2.6948    1.9406    0.6519 H       1  UNL1        0.0265
     16 H           4.9281    1.2199   -0.0541 H       1  UNL1        0.0265
     17 H           4.9281   -0.0028    1.1941 H       1  UNL1        0.0265
     18 H           4.7214    1.7415    2.9029 H       1  UNL1        0.0269
     19 H           4.7214    2.9643    1.6547 H       1  UNL1        0.0269
     20 H           6.9548    2.2436    0.9488 H       1  UNL1        0.0339
     21 H           6.9548    1.0209    2.1969 H       1  UNL1        0.0339
     22 H           6.4341    3.5767    3.4776 H       1  UNL1        0.1026
@<TRIPOS>BOND
     1     1     2    1
     2     2     3    1
     3     3     4    1
     4     4     5    1
     5     5     6    1
     6     6     7    1
     7     7     8    2
     8     1     9    1
     9     1    10    1
    10     1    11    1
    11     2    12    1
    12     2    13    1
    13     3    14    1
    14     3    15    1
    15     4    16    1
    16     4    17    1
    17     5    18    1
    18     5    19    1
    19     6    20    1
    20     6    21    1
    21     7    22    1
