@<TRIPOS>MOLECULE
*****
 53 53 0 0 0
SMALL
GASTEIGER

@<TRIPOS>ATOM
      1 C           1.0744   -0.0301    0.0597 C.3     1  UNL1       -0.0649
      2 C           2.5944   -0.0301    0.0597 C.3     1  UNL1       -0.0504
      3 C           3.1010    0.0310   -1.3721 C.3     1  UNL1       -0.0074
      4 C           4.6210    0.0310   -1.3721 C.ar    1  UNL1        0.0828
      5 C           5.3411    0.0841   -2.6182 C.ar    1  UNL1        0.0487
      6 N           6.7340    0.0841   -2.6182 N.ar    1  UNL1       -0.2492
      7 C           7.4690    0.0299   -1.3463 C.3     1  UNL1        0.0665
      8 C           6.4812   -0.0194   -0.1920 C.3     1  UNL1        0.0673
      9 O           7.1912   -0.0717    1.0366 O.3     1  UNL1       -0.3757
     10 C           6.2684   -0.1177    2.1150 C.3     1  UNL1        0.0711
     11 C           7.0284   -0.1738    3.4301 C.3     1  UNL1        0.0711
     12 O           6.1057   -0.2198    4.5085 O.3     1  UNL1       -0.3752
     13 C           6.8157   -0.2722    5.7371 C.3     1  UNL1        0.0711
     14 C           5.8279   -0.3214    6.8914 C.3     1  UNL1        0.0711
     15 O           6.5379   -0.3738    8.1200 O.3     1  UNL1       -0.3752
     16 C           5.6152   -0.4198    9.1983 C.3     1  UNL1        0.0711
     17 C           6.3752   -0.4758   10.5135 C.3     1  UNL1        0.0711
     18 O           5.4524   -0.5218   11.5918 O.3     1  UNL1       -0.3763
     19 C           6.1624   -0.5742   12.8205 C.3     1  UNL1        0.0600
     20 C           5.1747   -0.6234   13.9747 C.3     1  UNL1        0.0166
     21 N           5.9097   -0.6776   15.2466 N.3     1  UNL1       -0.3279
     22 N           7.4067    0.1337   -3.7823 N.ar    1  UNL1       -0.0654
     23 N           5.3174   -0.0204   -0.1669 N.ar    1  UNL1       -0.1345
     24 H           0.7177   -0.0731    1.0676 H       1  UNL1        0.0230
     25 H           0.7177   -0.8815   -0.4815 H       1  UNL1        0.0230
     26 H           0.7177    0.8643   -0.4070 H       1  UNL1        0.0230
     27 H           2.9510   -0.9244    0.5264 H       1  UNL1        0.0266
     28 H           2.9510    0.8213    0.6009 H       1  UNL1        0.0266
     29 H           2.7444    0.9253   -1.8388 H       1  UNL1        0.0329
     30 H           2.7444   -0.8204   -1.9132 H       1  UNL1        0.0329
     31 H           4.8251    0.1222   -3.5111 H       1  UNL1        0.0845
     32 H           8.0841    0.9003   -1.2524 H       1  UNL1        0.0532
     33 H           8.0841   -0.8454   -1.3269 H       1  UNL1        0.0532
     34 H           5.8660   -0.8898   -0.2859 H       1  UNL1        0.0578
     35 H           5.8660    0.8559   -0.2114 H       1  UNL1        0.0578
     36 H           5.6533   -0.9882    2.0211 H       1  UNL1        0.0583
     37 H           5.6533    0.7576    2.0955 H       1  UNL1        0.0583
     38 H           7.6436    0.6966    3.5240 H       1  UNL1        0.0583
     39 H           7.6436   -1.0491    3.4495 H       1  UNL1        0.0583
     40 H           7.4308    0.5983    5.8309 H       1  UNL1        0.0583
     41 H           7.4308   -1.1474    5.7565 H       1  UNL1        0.0583
     42 H           5.2128   -1.1918    6.7975 H       1  UNL1        0.0583
     43 H           5.2128    0.5539    6.8719 H       1  UNL1        0.0583
     44 H           5.0000   -1.2902    9.1045 H       1  UNL1        0.0583
     45 H           5.0000    0.4555    9.1789 H       1  UNL1        0.0583
     46 H           6.9903    0.3946   10.6073 H       1  UNL1        0.0583
     47 H           6.9903   -1.3511   10.5329 H       1  UNL1        0.0583
     48 H           6.7776    0.2962   12.9143 H       1  UNL1        0.0572
     49 H           6.7776   -1.4495   12.8399 H       1  UNL1        0.0572
     50 H           4.5595   -1.4939   13.8809 H       1  UNL1        0.0444
     51 H           4.5595    0.2519   13.9553 H       1  UNL1        0.0444
     52 H           6.4961   -1.5120   15.2651 H       1  UNL1        0.1183
     53 H           5.2468   -0.7107   16.0212 H       1  UNL1        0.1183
@<TRIPOS>BOND
     1     1     2    1
     2     2     3    1
     3     3     4    1
     4     4     5   ar
     5     5     6   ar
     6     6     7    1
     7     7     8    1
     8     8     9    1
     9     9    10    1
    10    10    11    1
    11    11    12    1
    12    12    13    1
    13    13    14    1
    14    14    15    1
    15    15    16    1
    16    16    17    1
    17    17    18    1
    18    18    19    1
    19    19    20    1
    20    20    21    1
    21     6    22   ar
    22    22    23   ar
    23     4    23   ar
    24     1    24    1
    25     1    25    1
    26     1    26    1
    27     2    27    1
    28     2    28    1
    29     3    29    1
    30     3    30    1
    31     5    31    1
    32     7    32    1
    33     7    33    1
    34     8    34    1
    35     8    35    1
    36    10    36    1
    37    10    37    1
    38    11    38    1
    39    11    39    1
    40    13    40    1
    41    13    41    1
    42    14    42    1
    43    14    43    1
    44    16    44    1
    45    16    45    1
    46    17    46    1
    47    17    47    1
    48    19    48    1
    49    19    49    1
    50    20    50    1
    51    20    51    1
    52    21    52    1
    53    21    53    1
