@<TRIPOS>MOLECULE
*****
 52 51 0 0 0
SMALL
GASTEIGER

@<TRIPOS>ATOM
      1 C           1.0978   -0.0059    0.0198 C.3     1  UNL1        0.0032
      2 N           2.5678   -0.0059    0.0198 N.am    1  UNL1       -0.3023
      3 C           3.3028   -0.3237   -1.2129 C.3     1  UNL1        0.0378
      4 C           2.3151   -0.6122   -2.3317 C.3     1  UNL1        0.0635
      5 O           3.0251   -0.9193   -3.5225 O.3     1  UNL1       -0.3760
      6 C           2.1023   -1.1887   -4.5676 C.3     1  UNL1        0.0711
      7 C           2.8623   -1.5174   -5.8422 C.3     1  UNL1        0.0711
      8 O           1.9396   -1.7869   -6.8874 O.3     1  UNL1       -0.3752
      9 C           2.6496   -2.0940   -8.0782 C.3     1  UNL1        0.0711
     10 C           1.6618   -2.3824   -9.1969 C.3     1  UNL1        0.0711
     11 O           2.3718   -2.6895  -10.3877 O.3     1  UNL1       -0.3752
     12 C           1.4491   -2.9590  -11.4328 C.3     1  UNL1        0.0711
     13 C           2.2091   -3.2877  -12.7075 C.3     1  UNL1        0.0711
     14 O           1.2863   -3.5572  -13.7526 O.3     1  UNL1       -0.3752
     15 C           1.9963   -3.8642  -14.9434 C.3     1  UNL1        0.0708
     16 C           1.0086   -4.1527  -16.0621 C.3     1  UNL1        0.0676
     17 O           1.7186   -4.4597  -17.2529 O.3     1  UNL1       -0.3927
     18 C           3.3028    0.3120    1.2525 C.2     1  UNL1        0.2166
     19 O           2.6674    0.5868    2.3183 O.2     1  UNL1       -0.2756
     20 C           4.8228    0.3120    1.2525 C.3     1  UNL1        0.0364
     21 C           5.3295    0.6698    2.6402 C.3     1  UNL1        0.0014
     22 N           6.7995    0.6698    2.6402 N.3     1  UNL1       -0.3295
     23 H           0.7412   -0.2577   -0.9570 H       1  UNL1        0.0428
     24 H           0.7412    0.9661    0.2901 H       1  UNL1        0.0428
     25 H           0.7412   -0.7259    0.7264 H       1  UNL1        0.0428
     26 H           3.9180   -1.1839   -1.0497 H       1  UNL1        0.0487
     27 H           3.9180    0.5081   -1.4860 H       1  UNL1        0.0487
     28 H           1.6999    0.2479   -2.4949 H       1  UNL1        0.0575
     29 H           1.6999   -1.4440   -2.0586 H       1  UNL1        0.0575
     30 H           1.4872   -0.3286   -4.7308 H       1  UNL1        0.0583
     31 H           1.4872   -2.0206   -4.2946 H       1  UNL1        0.0583
     32 H           3.4775   -2.3776   -5.6790 H       1  UNL1        0.0583
     33 H           3.4775   -0.6856   -6.1153 H       1  UNL1        0.0583
     34 H           3.2647   -2.9541   -7.9149 H       1  UNL1        0.0583
     35 H           3.2647   -1.2621   -8.3512 H       1  UNL1        0.0583
     36 H           1.0467   -1.5223   -9.3602 H       1  UNL1        0.0583
     37 H           1.0467   -3.2143   -8.9239 H       1  UNL1        0.0583
     38 H           0.8339   -2.0988  -11.5961 H       1  UNL1        0.0583
     39 H           0.8339   -3.7908  -11.1598 H       1  UNL1        0.0583
     40 H           2.8242   -4.1478  -12.5442 H       1  UNL1        0.0583
     41 H           2.8242   -2.4558  -12.9805 H       1  UNL1        0.0583
     42 H           2.6115   -4.7243  -14.7802 H       1  UNL1        0.0583
     43 H           2.6115   -3.0324  -15.2164 H       1  UNL1        0.0583
     44 H           0.3934   -3.2925  -16.2254 H       1  UNL1        0.0580
     45 H           0.3934   -4.9845  -15.7891 H       1  UNL1        0.0580
     46 H           2.2762   -3.7056  -17.5005 H       1  UNL1        0.2095
     47 H           5.1795    1.0320    0.5460 H       1  UNL1        0.0371
     48 H           5.1795   -0.6599    0.9823 H       1  UNL1        0.0371
     49 H           4.9728   -0.0502    3.3468 H       1  UNL1        0.0426
     50 H           4.9728    1.6418    2.9105 H       1  UNL1        0.0426
     51 H           7.1395   -0.2567    2.3826 H       1  UNL1        0.1182
     52 H           7.1395    0.9099    3.5714 H       1  UNL1        0.1182
@<TRIPOS>BOND
     1     1     2    1
     2     2     3    1
     3     3     4    1
     4     4     5    1
     5     5     6    1
     6     6     7    1
     7     7     8    1
     8     8     9    1
     9     9    10    1
    10    10    11    1
    11    11    12    1
    12    12    13    1
    13    13    14    1
    14    14    15    1
    15    15    16    1
    16    16    17    1
    17     2    18   am
    18    18    19    2
    19    18    20    1
    20    20    21    1
    21    21    22    1
    22     1    23    1
    23     1    24    1
    24     1    25    1
    25     3    26    1
    26     3    27    1
    27     4    28    1
    28     4    29    1
    29     6    30    1
    30     6    31    1
    31     7    32    1
    32     7    33    1
    33     9    34    1
    34     9    35    1
    35    10    36    1
    36    10    37    1
    37    12    38    1
    38    12    39    1
    39    13    40    1
    40    13    41    1
    41    15    42    1
    42    15    43    1
    43    16    44    1
    44    16    45    1
    45    17    46    1
    46    20    47    1
    47    20    48    1
    48    21    49    1
    49    21    50    1
    50    22    51    1
    51    22    52    1
