@<TRIPOS>MOLECULE
*****
 20 19 0 0 0
SMALL
GASTEIGER

@<TRIPOS>ATOM
      1 C           1.0688    0.0161    0.0707 C.3     1  UNL1       -0.0653
      2 C           2.5888    0.0161    0.0707 C.3     1  UNL1       -0.0559
      3 C           3.0955   -0.5404    1.3913 C.3     1  UNL1       -0.0533
      4 C           4.6155   -0.5404    1.3913 C.3     1  UNL1       -0.0533
      5 C           5.1221   -1.0970    2.7119 C.3     1  UNL1       -0.0559
      6 C           6.6421   -1.0970    2.7119 C.3     1  UNL1       -0.0653
      7 H           0.7121    0.4079   -0.8589 H       1  UNL1        0.0230
      8 H           0.7121    0.6253    0.8749 H       1  UNL1        0.0230
      9 H           0.7121   -0.9848    0.1962 H       1  UNL1        0.0230
     10 H           2.9455    1.0171   -0.0548 H       1  UNL1        0.0263
     11 H           2.9455   -0.5930   -0.7334 H       1  UNL1        0.0263
     12 H           2.7388   -1.5414    1.5168 H       1  UNL1        0.0265
     13 H           2.7388    0.0688    2.1954 H       1  UNL1        0.0265
     14 H           4.9721    0.4605    1.2658 H       1  UNL1        0.0265
     15 H           4.9721   -1.1496    0.5872 H       1  UNL1        0.0265
     16 H           4.7655   -2.0980    2.8374 H       1  UNL1        0.0263
     17 H           4.7655   -0.4878    3.5160 H       1  UNL1        0.0263
     18 H           6.9988   -1.7062    1.9078 H       1  UNL1        0.0230
     19 H           6.9988   -1.4888    3.6415 H       1  UNL1        0.0230
     20 H           6.9988   -0.0960    2.5864 H       1  UNL1        0.0230
@<TRIPOS>BOND
     1     1     2    1
     2     2     3    1
     3     3     4    1
     4     4     5    1
     5     5     6    1
     6     1     7    1
     7     1     8    1
     8     1     9    1
     9     2    10    1
    10     2    11    1
    11     3    12    1
    12     3    13    1
    13     4    14    1
    14     4    15    1
    15     5    16    1
    16     5    17    1
    17     6    18    1
    18     6    19    1
    19     6    20    1
