@<TRIPOS>MOLECULE
*****
 21 20 0 0 0
SMALL
GASTEIGER

@<TRIPOS>ATOM
      1 C           0.9128   -0.0249   -0.0421 C.3     1  UNL1       -0.0653
      2 C           2.4328   -0.0249   -0.0421 C.3     1  UNL1       -0.0559
      3 C           2.9395   -0.0951    1.3892 C.3     1  UNL1       -0.0519
      4 C           4.4595   -0.0951    1.3892 C.3     1  UNL1       -0.0374
      5 C           4.9661   -0.1653    2.8206 C.3     1  UNL1        0.0113
      6 N           6.4361   -0.1653    2.8206 N.am    1  UNL1       -0.3179
      7 C           7.1711   -0.2277    4.0921 C.2     1  UNL1        0.1999
      8 O           8.4420   -0.2277    4.0921 O.2     1  UNL1       -0.2795
      9 H           0.5561    0.0246   -1.0497 H       1  UNL1        0.0230
     10 H           0.5561    0.8230    0.5045 H       1  UNL1        0.0230
     11 H           0.5561   -0.9222    0.4188 H       1  UNL1        0.0230
     12 H           2.7895    0.8725   -0.5031 H       1  UNL1        0.0263
     13 H           2.7895   -0.8727   -0.5888 H       1  UNL1        0.0263
     14 H           2.5828   -0.9924    1.8502 H       1  UNL1        0.0266
     15 H           2.5828    0.7528    1.9358 H       1  UNL1        0.0266
     16 H           4.8161    0.8022    0.9282 H       1  UNL1        0.0280
     17 H           4.8161   -0.9430    0.8426 H       1  UNL1        0.0280
     18 H           4.6094   -1.0626    3.2815 H       1  UNL1        0.0462
     19 H           4.6094    0.6826    3.3672 H       1  UNL1        0.0462
     20 H           6.9284   -0.1235    1.9690 H       1  UNL1        0.1484
     21 H           6.6551   -0.2715    4.9847 H       1  UNL1        0.1251
@<TRIPOS>BOND
     1     1     2    1
     2     2     3    1
     3     3     4    1
     4     4     5    1
     5     5     6    1
     6     6     7   am
     7     7     8    2
     8     1     9    1
     9     1    10    1
    10     1    11    1
    11     2    12    1
    12     2    13    1
    13     3    14    1
    14     3    15    1
    15     4    16    1
    16     4    17    1
    17     5    18    1
    18     5    19    1
    19     6    20    1
    20     7    21    1
