@<TRIPOS>MOLECULE
*****
 33 33 0 0 0
SMALL
GASTEIGER

@<TRIPOS>ATOM
      1 C           1.0871    0.0450   -0.0200 C.3     1  UNL1       -0.0653
      2 C           2.6071    0.0450   -0.0200 C.3     1  UNL1       -0.0555
      3 C           3.1137   -0.8733    1.0802 C.3     1  UNL1       -0.0450
      4 C           4.6337   -0.8733    1.0802 C.3     1  UNL1        0.0241
      5 C           5.1404   -1.7916    2.1804 C.2     1  UNL1        0.2156
      6 O           4.3145   -2.4106    2.9220 O.2     1  UNL1       -0.2756
      7 N           6.5856   -1.9637    2.3866 N.am    1  UNL1       -0.2990
      8 C           7.0756   -2.8518    3.4507 C.3     1  UNL1        0.0275
      9 C           8.5956   -2.8518    3.4507 C.3     1  UNL1        0.0145
     10 N           9.0856   -3.7398    4.5147 N.3     1  UNL1       -0.3024
     11 C           8.5956   -5.1053    4.2776 C.3     1  UNL1       -0.0126
     12 C          10.5556   -3.7398    4.5147 C.3     1  UNL1        0.0145
     13 C           7.5409   -1.2478    1.5288 C.3     1  UNL1        0.0275
     14 H           0.7304    0.6914   -0.7945 H       1  UNL1        0.0230
     15 H           0.7304    0.3925    0.9270 H       1  UNL1        0.0230
     16 H           0.7304   -0.9490   -0.1926 H       1  UNL1        0.0230
     17 H           2.9637    1.0389    0.1525 H       1  UNL1        0.0263
     18 H           2.9637   -0.3026   -0.9671 H       1  UNL1        0.0263
     19 H           2.7570   -1.8673    0.9076 H       1  UNL1        0.0270
     20 H           2.7570   -0.5258    2.0272 H       1  UNL1        0.0270
     21 H           4.9904    0.1206    1.2527 H       1  UNL1        0.0358
     22 H           4.9904   -1.2208    0.1331 H       1  UNL1        0.0358
     23 H           6.7189   -3.8457    3.2781 H       1  UNL1        0.0477
     24 H           6.7189   -2.5042    4.3977 H       1  UNL1        0.0477
     25 H           8.9523   -1.8578    3.6232 H       1  UNL1        0.0442
     26 H           8.9523   -3.1993    2.5036 H       1  UNL1        0.0442
     27 H           7.5256   -5.1053    4.2776 H       1  UNL1        0.0391
     28 H           8.9523   -5.7517    5.0521 H       1  UNL1        0.0391
     29 H           8.9523   -5.4529    3.3306 H       1  UNL1        0.0391
     30 H          11.1103   -4.5848    4.1636 H       1  UNL1        0.0442
     31 H          11.3538   -3.5332    5.1967 H       1  UNL1        0.0442
     32 H           7.5557   -1.5228    0.4949 H       1  UNL1        0.0477
     33 H           7.5605   -0.1947    1.3402 H       1  UNL1        0.0477
@<TRIPOS>BOND
     1     1     2    1
     2     2     3    1
     3     3     4    1
     4     4     5    1
     5     5     6    2
     6     5     7   am
     7     7     8    1
     8     8     9    1
     9     9    10    1
    10    10    11    1
    11    10    12    1
    12    12    13    1
    13     7    13    1
    14     1    14    1
    15     1    15    1
    16     1    16    1
    17     2    17    1
    18     2    18    1
    19     3    19    1
    20     3    20    1
    21     4    21    1
    22     4    22    1
    23     8    23    1
    24     8    24    1
    25     9    25    1
    26     9    26    1
    27    11    27    1
    28    11    28    1
    29    11    29    1
    30    12    30    1
    31    12    31    1
    32    13    32    1
    33    13    33    1
