@<TRIPOS>MOLECULE
*****
 29 28 0 0 0
SMALL
GASTEIGER

@<TRIPOS>ATOM
      1 C           0.9159    0.0472   -0.0264 C.3     1  UNL1       -0.0416
      2 C           2.4359    0.0472   -0.0264 C.3     1  UNL1        0.0449
      3 O           2.9092   -1.1343    0.6031 O.3     1  UNL1       -0.3778
      4 C           4.3292   -1.1343    0.6031 C.3     1  UNL1        0.0710
      5 C           4.8359   -2.3990    1.2770 C.3     1  UNL1        0.0711
      6 O           6.2559   -2.3990    1.2770 O.3     1  UNL1       -0.3752
      7 C           6.7292   -3.5806    1.9066 C.3     1  UNL1        0.0711
      8 C           8.2492   -3.5806    1.9066 C.3     1  UNL1        0.0710
      9 O           8.7226   -4.7621    2.5361 O.3     1  UNL1       -0.3778
     10 C          10.1426   -4.7621    2.5361 C.3     1  UNL1        0.0449
     11 C          10.6492   -6.0268    3.2100 C.3     1  UNL1       -0.0416
     12 H           0.5593    0.9376   -0.5008 H       1  UNL1        0.0252
     13 H           0.5592    0.0129    0.9818 H       1  UNL1        0.0252
     14 H           0.5592   -0.8087   -0.5603 H       1  UNL1        0.0252
     15 H           2.7926    0.9032    0.5074 H       1  UNL1        0.0557
     16 H           2.7926    0.0816   -1.0346 H       1  UNL1        0.0557
     17 H           4.6859   -0.2783    1.1370 H       1  UNL1        0.0583
     18 H           4.6859   -1.1000   -0.4051 H       1  UNL1        0.0583
     19 H           4.4792   -3.2550    0.7432 H       1  UNL1        0.0583
     20 H           4.4792   -2.4334    2.2852 H       1  UNL1        0.0583
     21 H           6.3726   -4.4365    1.3727 H       1  UNL1        0.0583
     22 H           6.3726   -3.6149    2.9148 H       1  UNL1        0.0583
     23 H           8.6059   -2.7246    2.4404 H       1  UNL1        0.0583
     24 H           8.6059   -3.5462    0.8984 H       1  UNL1        0.0583
     25 H          10.4992   -3.9061    3.0700 H       1  UNL1        0.0557
     26 H          10.4992   -4.7278    1.5279 H       1  UNL1        0.0557
     27 H          10.2925   -6.0612    4.2182 H       1  UNL1        0.0252
     28 H          11.7192   -6.0268    3.2100 H       1  UNL1        0.0252
     29 H          10.2926   -6.8828    2.6762 H       1  UNL1        0.0252
@<TRIPOS>BOND
     1     1     2    1
     2     2     3    1
     3     3     4    1
     4     4     5    1
     5     5     6    1
     6     6     7    1
     7     7     8    1
     8     8     9    1
     9     9    10    1
    10    10    11    1
    11     1    12    1
    12     1    13    1
    13     1    14    1
    14     2    15    1
    15     2    16    1
    16     4    17    1
    17     4    18    1
    18     5    19    1
    19     5    20    1
    20     7    21    1
    21     7    22    1
    22     8    23    1
    23     8    24    1
    24    10    25    1
    25    10    26    1
    26    11    27    1
    27    11    28    1
    28    11    29    1
