@<TRIPOS>MOLECULE
*****
 26 26 0 0 0
SMALL
GASTEIGER

@<TRIPOS>ATOM
      1 C           1.0484    0.0826    0.0288 C.3     1  UNL1       -0.0653
      2 C           2.5684    0.0826    0.0288 C.3     1  UNL1       -0.0559
      3 C           3.0751   -0.7736    1.1780 C.3     1  UNL1       -0.0532
      4 C           4.5951   -0.7736    1.1780 C.3     1  UNL1       -0.0514
      5 C           5.1018   -1.6297    2.3272 C.3     1  UNL1       -0.0333
      6 C           6.6218   -1.6297    2.3272 C.3     1  UNL1        0.0432
      7 N           7.1118   -2.4577    3.4386 N.ar    1  UNL1       -0.2517
      8 C           8.4811   -2.6098    3.6427 C.ar    1  UNL1        0.0454
      9 C           8.9612   -3.4210    4.7316 C.ar    1  UNL1        0.0693
     10 N          10.3306   -3.5730    4.9357 N.ar    1  UNL1       -0.1380
     11 N           6.2374   -3.0687    4.2587 N.ar    1  UNL1       -0.0657
     12 H           0.6918    0.6853   -0.7802 H       1  UNL1        0.0230
     13 H           0.6918    0.4819    0.9552 H       1  UNL1        0.0230
     14 H           0.6918   -0.9193   -0.0887 H       1  UNL1        0.0230
     15 H           2.9251    1.0846    0.1463 H       1  UNL1        0.0263
     16 H           2.9251   -0.3166   -0.8976 H       1  UNL1        0.0263
     17 H           2.7184   -1.7755    1.0605 H       1  UNL1        0.0265
     18 H           2.7184   -0.3743    2.1044 H       1  UNL1        0.0265
     19 H           4.9518    0.2284    1.2955 H       1  UNL1        0.0266
     20 H           4.9518   -1.1728    0.2516 H       1  UNL1        0.0266
     21 H           4.7451   -2.6317    2.2097 H       1  UNL1        0.0283
     22 H           4.7451   -1.2305    3.2536 H       1  UNL1        0.0283
     23 H           6.9784   -0.6278    2.4447 H       1  UNL1        0.0509
     24 H           6.9784   -2.0290    1.4008 H       1  UNL1        0.0509
     25 H           9.1518   -2.1411    3.0137 H       1  UNL1        0.0842
     26 H           8.2906   -3.8896    5.3606 H       1  UNL1        0.0864
@<TRIPOS>BOND
     1     1     2    1
     2     2     3    1
     3     3     4    1
     4     4     5    1
     5     5     6    1
     6     6     7    1
     7     7     8   ar
     8     8     9   ar
     9     9    10   ar
    10    10    11   ar
    11     7    11   ar
    12     1    12    1
    13     1    13    1
    14     1    14    1
    15     2    15    1
    16     2    16    1
    17     3    17    1
    18     3    18    1
    19     4    19    1
    20     4    20    1
    21     5    21    1
    22     5    22    1
    23     6    23    1
    24     6    24    1
    25     8    25    1
    26     9    26    1
