@<TRIPOS>MOLECULE
*****
 23 22 0 0 0
SMALL
GASTEIGER

@<TRIPOS>ATOM
      1 C           1.0363    0.0512   -0.0779 C.3     1  UNL1       -0.0416
      2 C           2.5563    0.0512   -0.0779 C.3     1  UNL1        0.0449
      3 O           3.0296   -1.2566    0.2085 O.3     1  UNL1       -0.3778
      4 C           4.4496   -1.2566    0.2085 C.3     1  UNL1        0.0710
      5 C           4.9562   -2.6566    0.5150 C.3     1  UNL1        0.0711
      6 O           6.3762   -2.6566    0.5150 O.3     1  UNL1       -0.3752
      7 C           6.8496   -3.9644    0.8013 C.3     1  UNL1        0.0708
      8 C           8.3696   -3.9644    0.8013 C.3     1  UNL1        0.0676
      9 O           8.8429   -5.2722    1.0877 O.3     1  UNL1       -0.3927
     10 H           0.6796    1.0366   -0.2937 H       1  UNL1        0.0252
     11 H           0.6796   -0.2547    0.8834 H       1  UNL1        0.0252
     12 H           0.6796   -0.6284   -0.8234 H       1  UNL1        0.0252
     13 H           2.9129    0.7308    0.6677 H       1  UNL1        0.0557
     14 H           2.9129    0.3570   -1.0392 H       1  UNL1        0.0557
     15 H           4.8063   -0.5771    0.9540 H       1  UNL1        0.0583
     16 H           4.8063   -0.9508   -0.7529 H       1  UNL1        0.0583
     17 H           4.5996   -3.3361   -0.2306 H       1  UNL1        0.0583
     18 H           4.5996   -2.9624    1.4763 H       1  UNL1        0.0583
     19 H           6.4929   -4.6440    0.0558 H       1  UNL1        0.0583
     20 H           6.4929   -4.2702    1.7626 H       1  UNL1        0.0583
     21 H           8.7262   -3.2848    1.5469 H       1  UNL1        0.0580
     22 H           8.7262   -3.6585   -0.1600 H       1  UNL1        0.0580
     23 H           8.5196   -5.5494    1.9592 H       1  UNL1        0.2095
@<TRIPOS>BOND
     1     1     2    1
     2     2     3    1
     3     3     4    1
     4     4     5    1
     5     5     6    1
     6     6     7    1
     7     7     8    1
     8     8     9    1
     9     1    10    1
    10     1    11    1
    11     1    12    1
    12     2    13    1
    13     2    14    1
    14     4    15    1
    15     4    16    1
    16     5    17    1
    17     5    18    1
    18     7    19    1
    19     7    20    1
    20     8    21    1
    21     8    22    1
    22     9    23    1
