@<TRIPOS>MOLECULE
*****
 27 27 0 0 0
SMALL
GASTEIGER

@<TRIPOS>ATOM
      1 C           1.0043    0.0548   -0.0835 C.3     1  UNL1       -0.0524
      2 C           2.5243    0.0548   -0.0835 C.3     1  UNL1       -0.0038
      3 N           3.0143   -1.3024    0.1973 N.3     1  UNL1       -0.2996
      4 C           4.4843   -1.3024    0.1973 C.3     1  UNL1        0.0147
      5 C           4.9910   -2.7057    0.4878 C.3     1  UNL1        0.0275
      6 N           6.4610   -2.7057    0.4878 N.am    1  UNL1       -0.2993
      7 C           7.1960   -1.4591    0.2298 C.2     1  UNL1        0.2125
      8 C           8.7160   -1.4591    0.2298 C.3     1  UNL1        0.0124
      9 O           6.5605   -0.3813    0.0067 O.2     1  UNL1       -0.2759
     10 C           7.1960   -3.9523    0.7458 C.3     1  UNL1        0.0275
     11 C           2.5243   -2.2242   -0.8375 C.3     1  UNL1        0.0147
     12 H           0.6477    1.0427   -0.2880 H       1  UNL1        0.0242
     13 H           0.6477   -0.2621    0.8742 H       1  UNL1        0.0242
     14 H           0.6477   -0.6162   -0.8368 H       1  UNL1        0.0242
     15 H           2.8810    0.7258    0.6697 H       1  UNL1        0.0424
     16 H           2.8810    0.3717   -1.0413 H       1  UNL1        0.0424
     17 H           4.8410   -0.6314    0.9506 H       1  UNL1        0.0442
     18 H           4.8410   -0.9855   -0.7604 H       1  UNL1        0.0442
     19 H           4.6343   -3.3767   -0.2655 H       1  UNL1        0.0477
     20 H           4.6343   -3.0226    1.4455 H       1  UNL1        0.0477
     21 H           9.0726   -2.4469    0.4342 H       1  UNL1        0.0323
     22 H           9.0726   -0.7881    0.9831 H       1  UNL1        0.0323
     23 H           9.0726   -1.1422   -0.7280 H       1  UNL1        0.0323
     24 H           7.3744   -4.3307    1.7307 H       1  UNL1        0.0477
     25 H           8.0467   -4.5244    0.4394 H       1  UNL1        0.0477
     26 H           1.6672   -2.8221   -0.6077 H       1  UNL1        0.0442
     27 H           2.1790   -2.0117   -1.8277 H       1  UNL1        0.0442
@<TRIPOS>BOND
     1     1     2    1
     2     2     3    1
     3     3     4    1
     4     4     5    1
     5     5     6    1
     6     6     7   am
     7     7     8    1
     8     7     9    2
     9     6    10    1
    10    10    11    1
    11     3    11    1
    12     1    12    1
    13     1    13    1
    14     1    14    1
    15     2    15    1
    16     2    16    1
    17     4    17    1
    18     4    18    1
    19     5    19    1
    20     5    20    1
    21     8    21    1
    22     8    22    1
    23     8    23    1
    24    10    24    1
    25    10    25    1
    26    11    26    1
    27    11    27    1
