@<TRIPOS>MOLECULE
*****
 41 41 0 0 0
SMALL
GASTEIGER

@<TRIPOS>ATOM
      1 N           1.0941   -0.0165    0.0294 N.3     1  UNL1       -0.3300
      2 C           2.5641   -0.0165    0.0294 C.3     1  UNL1       -0.0069
      3 C           3.0708   -1.4161    0.3374 C.3     1  UNL1       -0.0406
      4 C           4.5908   -1.4161    0.3374 C.3     1  UNL1       -0.0519
      5 C           5.0975   -2.8156    0.6454 C.3     1  UNL1       -0.0530
      6 C           6.6175   -2.8156    0.6454 C.3     1  UNL1       -0.0514
      7 C           7.1241   -4.2152    0.9534 C.3     1  UNL1       -0.0333
      8 C           8.6441   -4.2152    0.9534 C.3     1  UNL1        0.0432
      9 N           9.1341   -5.5688    1.2512 N.ar    1  UNL1       -0.2515
     10 C          10.5035   -5.8173    1.3059 C.ar    1  UNL1        0.0486
     11 C          10.9836   -7.1435    1.5977 C.ar    1  UNL1        0.0829
     12 C           9.9958   -8.2718    1.8460 C.3     1  UNL1       -0.0051
     13 C           8.5773   -7.7384    1.7286 C.3     1  UNL1       -0.0242
     14 C           7.5896   -8.8667    1.9769 C.3     1  UNL1        0.0446
     15 O           6.2644   -8.3684    1.8673 O.3     1  UNL1       -0.3950
     16 N          12.3529   -7.3920    1.6524 N.ar    1  UNL1       -0.1345
     17 N           8.2598   -6.5675    1.4710 N.ar    1  UNL1       -0.0655
     18 H           0.7541    0.9227   -0.1772 H       1  UNL1        0.1182
     19 H           0.7541   -0.3071    0.9461 H       1  UNL1        0.1182
     20 H           2.9208    0.6639    0.7743 H       1  UNL1        0.0422
     21 H           2.9208    0.2884   -0.9322 H       1  UNL1        0.0422
     22 H           2.7141   -2.0964   -0.4074 H       1  UNL1        0.0277
     23 H           2.7141   -1.7209    1.2990 H       1  UNL1        0.0277
     24 H           4.9475   -0.7357    1.0822 H       1  UNL1        0.0266
     25 H           4.9475   -1.1112   -0.6242 H       1  UNL1        0.0266
     26 H           4.7408   -3.4960   -0.0995 H       1  UNL1        0.0265
     27 H           4.7408   -3.1205    1.6070 H       1  UNL1        0.0265
     28 H           6.9741   -2.1353    1.3902 H       1  UNL1        0.0266
     29 H           6.9741   -2.5108   -0.3163 H       1  UNL1        0.0266
     30 H           6.7675   -4.8956    0.2085 H       1  UNL1        0.0283
     31 H           6.7675   -4.5201    1.9150 H       1  UNL1        0.0283
     32 H           9.0008   -3.5349    1.6982 H       1  UNL1        0.0509
     33 H           9.0008   -3.9104   -0.0083 H       1  UNL1        0.0509
     34 H          11.1741   -5.0513    1.1373 H       1  UNL1        0.0845
     35 H          10.1474   -8.6689    2.8279 H       1  UNL1        0.0330
     36 H          10.1474   -9.0444    1.1215 H       1  UNL1        0.0330
     37 H           8.4257   -7.3413    0.7467 H       1  UNL1        0.0291
     38 H           8.4257   -6.9657    2.4532 H       1  UNL1        0.0291
     39 H           7.7412   -9.2638    2.9589 H       1  UNL1        0.0557
     40 H           7.7412   -9.6393    1.2524 H       1  UNL1        0.0557
     41 H           6.1270   -7.6680    2.5241 H       1  UNL1        0.2094
@<TRIPOS>BOND
     1     1     2    1
     2     2     3    1
     3     3     4    1
     4     4     5    1
     5     5     6    1
     6     6     7    1
     7     7     8    1
     8     8     9    1
     9     9    10   ar
    10    10    11   ar
    11    11    12    1
    12    12    13    1
    13    13    14    1
    14    14    15    1
    15    11    16   ar
    16    16    17   ar
    17     9    17   ar
    18     1    18    1
    19     1    19    1
    20     2    20    1
    21     2    21    1
    22     3    22    1
    23     3    23    1
    24     4    24    1
    25     4    25    1
    26     5    26    1
    27     5    27    1
    28     6    28    1
    29     6    29    1
    30     7    30    1
    31     7    31    1
    32     8    32    1
    33     8    33    1
    34    10    34    1
    35    12    35    1
    36    12    36    1
    37    13    37    1
    38    13    38    1
    39    14    39    1
    40    14    40    1
    41    15    41    1
