@<TRIPOS>MOLECULE
*****
 48 47 0 0 0
SMALL
GASTEIGER

@<TRIPOS>ATOM
      1 C           0.9319    0.0082   -0.0728 C.3     1  UNL1       -0.0632
      2 C           2.4519    0.0082   -0.0728 C.3     1  UNL1       -0.0323
      3 C           2.9585    1.2964   -0.7006 C.3     1  UNL1        0.0474
      4 O           4.3785    1.2964   -0.7006 O.3     1  UNL1       -0.3798
      5 C           4.8519    2.4999   -1.2871 C.3     1  UNL1        0.0477
      6 C           6.3719    2.4999   -1.2871 C.3     1  UNL1       -0.0294
      7 C           6.8785    3.7882   -1.9149 C.3     1  UNL1       -0.0489
      8 C           8.3985    3.7882   -1.9149 C.3     1  UNL1       -0.0294
      9 C           8.9052    5.0764   -2.5427 C.3     1  UNL1        0.0477
     10 O          10.3252    5.0764   -2.5427 O.3     1  UNL1       -0.3798
     11 C          10.7985    6.2799   -3.1292 C.3     1  UNL1        0.0477
     12 C          12.3185    6.2799   -3.1292 C.3     1  UNL1       -0.0295
     13 C          12.8252    7.5681   -3.7570 C.3     1  UNL1       -0.0509
     14 C          14.3452    7.5681   -3.7570 C.3     1  UNL1       -0.0518
     15 C          14.8518    8.8563   -4.3849 C.3     1  UNL1       -0.0406
     16 C          16.3718    8.8563   -4.3849 C.3     1  UNL1       -0.0069
     17 N          16.8618   10.1022   -4.9920 N.3     1  UNL1       -0.3300
     18 H           0.5752   -0.8986    0.3692 H       1  UNL1        0.0230
     19 H           0.5752    0.0789   -1.0791 H       1  UNL1        0.0230
     20 H           0.5752    0.8444    0.4916 H       1  UNL1        0.0230
     21 H           2.8086   -0.8279   -0.6371 H       1  UNL1        0.0285
     22 H           2.8086   -0.0625    0.9336 H       1  UNL1        0.0285
     23 H           2.6019    2.1326   -0.1362 H       1  UNL1        0.0560
     24 H           2.6019    1.3671   -1.7069 H       1  UNL1        0.0560
     25 H           4.4952    3.3361   -0.7227 H       1  UNL1        0.0560
     26 H           4.4952    2.5706   -2.2934 H       1  UNL1        0.0560
     27 H           6.7285    1.6638   -1.8515 H       1  UNL1        0.0287
     28 H           6.7285    2.4292   -0.2808 H       1  UNL1        0.0287
     29 H           6.5219    4.6243   -1.3505 H       1  UNL1        0.0267
     30 H           6.5219    3.8588   -2.9212 H       1  UNL1        0.0267
     31 H           8.7552    2.9520   -2.4793 H       1  UNL1        0.0287
     32 H           8.7552    3.7175   -0.9086 H       1  UNL1        0.0287
     33 H           8.5485    5.9126   -1.9783 H       1  UNL1        0.0560
     34 H           8.5485    5.1471   -3.5490 H       1  UNL1        0.0560
     35 H          10.4419    7.1160   -2.5648 H       1  UNL1        0.0560
     36 H          10.4419    6.3506   -4.1356 H       1  UNL1        0.0560
     37 H          12.6752    5.4437   -3.6936 H       1  UNL1        0.0287
     38 H          12.6752    6.2092   -2.1229 H       1  UNL1        0.0287
     39 H          12.4685    8.4043   -3.1927 H       1  UNL1        0.0266
     40 H          12.4685    7.6388   -4.7634 H       1  UNL1        0.0266
     41 H          14.7019    6.7319   -4.3214 H       1  UNL1        0.0266
     42 H          14.7019    7.4974   -2.7507 H       1  UNL1        0.0266
     43 H          14.4952    9.6925   -3.8205 H       1  UNL1        0.0277
     44 H          14.4952    8.9270   -5.3912 H       1  UNL1        0.0277
     45 H          16.7285    8.0202   -4.9492 H       1  UNL1        0.0422
     46 H          16.7285    8.7856   -3.3785 H       1  UNL1        0.0422
     47 H          16.5218   10.1696   -5.9513 H       1  UNL1        0.1182
     48 H          17.8818   10.1022   -4.9920 H       1  UNL1        0.1182
@<TRIPOS>BOND
     1     1     2    1
     2     2     3    1
     3     3     4    1
     4     4     5    1
     5     5     6    1
     6     6     7    1
     7     7     8    1
     8     8     9    1
     9     9    10    1
    10    10    11    1
    11    11    12    1
    12    12    13    1
    13    13    14    1
    14    14    15    1
    15    15    16    1
    16    16    17    1
    17     1    18    1
    18     1    19    1
    19     1    20    1
    20     2    21    1
    21     2    22    1
    22     3    23    1
    23     3    24    1
    24     5    25    1
    25     5    26    1
    26     6    27    1
    27     6    28    1
    28     7    29    1
    29     7    30    1
    30     8    31    1
    31     8    32    1
    32     9    33    1
    33     9    34    1
    34    11    35    1
    35    11    36    1
    36    12    37    1
    37    12    38    1
    38    13    39    1
    39    13    40    1
    40    14    41    1
    41    14    42    1
    42    15    43    1
    43    15    44    1
    44    16    45    1
    45    16    46    1
    46    17    47    1
    47    17    48    1
