@<TRIPOS>MOLECULE
*****
 35 34 0 0 0
SMALL
GASTEIGER

@<TRIPOS>ATOM
      1 C           1.0650    0.0695    0.0309 C.3     1  UNL1       -0.0648
      2 C           2.5850    0.0695    0.0309 C.3     1  UNL1       -0.0476
      3 C           3.0917    1.4149    0.5243 C.3     1  UNL1        0.0237
      4 C           4.6117    1.4149    0.5243 C.2     1  UNL1        0.2131
      5 O           5.2471    0.3816    0.1453 O.2     1  UNL1       -0.2758
      6 N           5.3467    2.6101    0.9626 N.am    1  UNL1       -0.3131
      7 C           6.8167    2.6101    0.9626 C.3     1  UNL1        0.0350
      8 C           7.3233    3.9556    1.4560 C.3     1  UNL1        0.0632
      9 O           8.7433    3.9556    1.4560 O.3     1  UNL1       -0.3760
     10 C           9.2166    5.2125    1.9170 C.3     1  UNL1        0.0711
     11 C          10.7366    5.2125    1.9170 C.3     1  UNL1        0.0710
     12 O          11.2100    6.4694    2.3779 O.3     1  UNL1       -0.3778
     13 C          12.6300    6.4694    2.3779 C.3     1  UNL1        0.0449
     14 C          13.1366    7.8149    2.8713 C.3     1  UNL1       -0.0416
     15 H           0.7083   -0.8777   -0.3165 H       1  UNL1        0.0230
     16 H           0.7083    0.8438   -0.6157 H       1  UNL1        0.0230
     17 H           0.7083    0.2422    1.0248 H       1  UNL1        0.0230
     18 H           2.9417   -0.1033   -0.9630 H       1  UNL1        0.0267
     19 H           2.9417   -0.7049    0.6774 H       1  UNL1        0.0267
     20 H           2.7350    1.5877    1.5182 H       1  UNL1        0.0358
     21 H           2.7350    2.1893   -0.1223 H       1  UNL1        0.0358
     22 H           4.8544    3.4106    1.2561 H       1  UNL1        0.1488
     23 H           7.1733    2.4374   -0.0313 H       1  UNL1        0.0484
     24 H           7.1733    1.8358    1.6092 H       1  UNL1        0.0484
     25 H           6.9666    4.1283    2.4499 H       1  UNL1        0.0575
     26 H           6.9666    4.7299    0.8094 H       1  UNL1        0.0575
     27 H           8.8600    5.3853    2.9109 H       1  UNL1        0.0583
     28 H           8.8600    5.9869    1.2704 H       1  UNL1        0.0583
     29 H          11.0933    5.0397    0.9231 H       1  UNL1        0.0583
     30 H          11.0933    4.4381    2.5635 H       1  UNL1        0.0583
     31 H          12.9866    6.2967    1.3840 H       1  UNL1        0.0557
     32 H          12.9866    5.6951    3.0245 H       1  UNL1        0.0557
     33 H          12.7800    8.5893    2.2248 H       1  UNL1        0.0252
     34 H          14.2066    7.8149    2.8713 H       1  UNL1        0.0252
     35 H          12.7800    7.9877    3.8652 H       1  UNL1        0.0252
@<TRIPOS>BOND
     1     1     2    1
     2     2     3    1
     3     3     4    1
     4     4     5    2
     5     4     6   am
     6     6     7    1
     7     7     8    1
     8     8     9    1
     9     9    10    1
    10    10    11    1
    11    11    12    1
    12    12    13    1
    13    13    14    1
    14     1    15    1
    15     1    16    1
    16     1    17    1
    17     2    18    1
    18     2    19    1
    19     3    20    1
    20     3    21    1
    21     6    22    1
    22     7    23    1
    23     7    24    1
    24     8    25    1
    25     8    26    1
    26    10    27    1
    27    10    28    1
    28    11    29    1
    29    11    30    1
    30    13    31    1
    31    13    32    1
    32    14    33    1
    33    14    34    1
    34    14    35    1
