@<TRIPOS>MOLECULE
*****
 33 34 0 0 0
SMALL
GASTEIGER

@<TRIPOS>ATOM
      1 N           0.9780   -0.0190   -0.0957 N.pl3   1  UNL1       -0.3580
      2 C           2.4480   -0.0190   -0.0957 C.ar    1  UNL1        0.0246
      3 C           3.1681   -0.8129   -1.0577 C.ar    1  UNL1       -0.0403
      4 C           4.6083   -0.8129   -1.0577 C.ar    1  UNL1       -0.0479
      5 C           5.3284   -1.6067   -2.0197 C.ar    1  UNL1        0.0368
      6 C           4.5684   -2.4445   -3.0350 C.2     1  UNL1        0.2443
      7 O           5.2038   -3.1450   -3.8840 O.2     1  UNL1       -0.2702
      8 N           3.0984   -2.4445   -3.0350 N.am    1  UNL1       -0.3084
      9 C           2.3634   -3.2547   -4.0170 C.3     1  UNL1        0.0257
     10 C           0.8690   -3.0780   -3.8027 C.3     1  UNL1       -0.0219
     11 C           0.1090   -3.9158   -4.8180 C.3     1  UNL1       -0.0024
     12 N          -1.3363   -3.7448   -4.6108 N.3     1  UNL1       -0.3159
     13 C          -2.0713   -4.5550   -5.5928 C.3     1  UNL1       -0.0024
     14 C           2.7306   -4.7193   -3.8418 C.3     1  UNL1       -0.0219
     15 C           6.7686   -1.6067   -2.0197 C.ar    1  UNL1       -0.0479
     16 C           3.1681    0.7748    0.8663 C.ar    1  UNL1       -0.0403
     17 H           0.4857   -0.5617   -0.7533 H       1  UNL1        0.1423
     18 H           0.4857    0.5236    0.5620 H       1  UNL1        0.1423
     19 H           2.6521   -1.3817   -1.7470 H       1  UNL1        0.0636
     20 H           5.1243   -0.2440   -0.3683 H       1  UNL1        0.0626
     21 H           2.6061   -1.9018   -2.3774 H       1  UNL1        0.1493
     22 H           2.6219   -2.9380   -5.0058 H       1  UNL1        0.0499
     23 H           0.6105   -2.0470   -3.9260 H       1  UNL1        0.0295
     24 H           0.6105   -3.3947   -2.8139 H       1  UNL1        0.0295
     25 H           0.3675   -4.9467   -4.6948 H       1  UNL1        0.0425
     26 H           0.3675   -3.5990   -5.8069 H       1  UNL1        0.0425
     27 H          -1.5827   -2.7620   -4.7284 H       1  UNL1        0.1219
     28 H          -2.3056   -4.1862   -6.5695 H       1  UNL1        0.0425
     29 H          -2.9427   -5.1720   -5.6625 H       1  UNL1        0.0425
     30 H           3.4818   -5.1244   -4.4871 H       1  UNL1        0.0295
     31 H           3.1193   -5.2205   -2.9801 H       1  UNL1        0.0295
     32 H           7.7182   -1.8639   -2.3314 H       1  UNL1        0.0626
     33 H           3.0432    1.4268    1.6565 H       1  UNL1        0.0636
@<TRIPOS>BOND
     1     1     2    1
     2     2     3   ar
     3     3     4   ar
     4     4     5   ar
     5     5     6    1
     6     6     7    2
     7     6     8   am
     8     8     9    1
     9     9    10    1
    10    10    11    1
    11    11    12    1
    12    12    13    1
    13    13    14    1
    14     9    14    1
    15     5    15   ar
    16    15    16   ar
    17     2    16   ar
    18     1    17    1
    19     1    18    1
    20     3    19    1
    21     4    20    1
    22     8    21    1
    23     9    22    1
    24    10    23    1
    25    10    24    1
    26    11    25    1
    27    11    26    1
    28    12    27    1
    29    13    28    1
    30    13    29    1
    31    14    30    1
    32    14    31    1
    33    15    32    1
    34    16    33    1
