@<TRIPOS>MOLECULE
*****
 38 37 0 0 0
SMALL
GASTEIGER

@<TRIPOS>ATOM
      1 C           0.9149    0.0291   -0.0437 C.3     1  UNL1        0.0365
      2 O           2.3349    0.0291   -0.0437 O.3     1  UNL1       -0.3807
      3 C           2.8082   -0.9769   -0.9270 C.3     1  UNL1        0.0706
      4 C           4.3282   -0.9769   -0.9270 C.3     1  UNL1        0.0711
      5 O           4.8015   -1.9830   -1.8103 O.3     1  UNL1       -0.3752
      6 C           6.2215   -1.9830   -1.8103 C.3     1  UNL1        0.0711
      7 C           6.7282   -3.0599   -2.7558 C.3     1  UNL1        0.0711
      8 O           8.1482   -3.0599   -2.7558 O.3     1  UNL1       -0.3760
      9 C           8.6215   -4.0659   -3.6391 C.3     1  UNL1        0.0632
     10 C          10.1415   -4.0659   -3.6391 C.3     1  UNL1        0.0350
     11 N          10.6315   -5.1074   -4.5535 N.am    1  UNL1       -0.3131
     12 C          12.0768   -5.3093   -4.7307 C.2     1  UNL1        0.2135
     13 O          12.9026   -4.5834   -4.0934 O.2     1  UNL1       -0.2758
     14 C          12.5834   -6.3862   -5.6762 C.3     1  UNL1        0.0303
     15 C          14.1034   -6.3862   -5.6762 C.3     1  UNL1        0.0110
     16 C          14.6101   -7.4631   -6.6217 C.2     1  UNL1        0.1208
     17 O          15.8596   -7.6376   -6.7750 O.2     1  UNL1       -0.3010
     18 H           0.5582    0.7872    0.6219 H       1  UNL1        0.0524
     19 H           0.5582   -0.9264    0.2801 H       1  UNL1        0.0524
     20 H           0.5582    0.2265   -1.0330 H       1  UNL1        0.0524
     21 H           2.4515   -0.7796   -1.9163 H       1  UNL1        0.0582
     22 H           2.4515   -1.9324   -0.6032 H       1  UNL1        0.0582
     23 H           4.6849   -1.1743    0.0623 H       1  UNL1        0.0583
     24 H           4.6849   -0.0215   -1.2507 H       1  UNL1        0.0583
     25 H           6.5782   -2.1804   -0.8210 H       1  UNL1        0.0583
     26 H           6.5782   -1.0275   -2.1340 H       1  UNL1        0.0583
     27 H           6.3715   -2.8625   -3.7451 H       1  UNL1        0.0583
     28 H           6.3715   -4.0153   -2.4321 H       1  UNL1        0.0583
     29 H           8.2648   -3.8686   -4.6284 H       1  UNL1        0.0575
     30 H           8.2648   -5.0214   -3.3154 H       1  UNL1        0.0575
     31 H          10.4982   -4.2633   -2.6498 H       1  UNL1        0.0484
     32 H          10.4982   -3.1105   -3.9628 H       1  UNL1        0.0484
     33 H           9.9917   -5.6697   -5.0472 H       1  UNL1        0.1488
     34 H          12.2268   -6.1888   -6.6655 H       1  UNL1        0.0362
     35 H          12.2268   -7.3416   -5.3525 H       1  UNL1        0.0362
     36 H          14.4601   -6.5835   -4.6869 H       1  UNL1        0.0343
     37 H          14.4601   -5.4307   -5.9999 H       1  UNL1        0.0343
     38 H          13.9395   -8.0525   -7.1393 H       1  UNL1        0.1026
@<TRIPOS>BOND
     1     1     2    1
     2     2     3    1
     3     3     4    1
     4     4     5    1
     5     5     6    1
     6     6     7    1
     7     7     8    1
     8     8     9    1
     9     9    10    1
    10    10    11    1
    11    11    12   am
    12    12    13    2
    13    12    14    1
    14    14    15    1
    15    15    16    1
    16    16    17    2
    17     1    18    1
    18     1    19    1
    19     1    20    1
    20     3    21    1
    21     3    22    1
    22     4    23    1
    23     4    24    1
    24     6    25    1
    25     6    26    1
    26     7    27    1
    27     7    28    1
    28     9    29    1
    29     9    30    1
    30    10    31    1
    31    10    32    1
    32    11    33    1
    33    14    34    1
    34    14    35    1
    35    15    36    1
    36    15    37    1
    37    16    38    1
