@<TRIPOS>MOLECULE
*****
 16 16 0 0 0
SMALL
GASTEIGER

@<TRIPOS>ATOM
      1 C           0.9410   -0.0515   -0.0622 C.3     1  UNL1        0.0085
      2 C           2.4610   -0.0515   -0.0622 C.3     1  UNL1        0.0085
      3 N           2.9510    1.0447   -0.9102 N.3     1  UNL1       -0.3136
      4 C           4.4210    1.0447   -0.9102 C.3     1  UNL1        0.0085
      5 C           4.9277    2.1782   -1.7871 C.3     1  UNL1        0.0085
      6 N           0.4510   -1.1477    0.7859 N.3     1  UNL1       -0.3136
      7 H           0.5843   -0.1871   -1.0618 H       1  UNL1        0.0436
      8 H           0.5843    0.8820    0.3202 H       1  UNL1        0.0436
      9 H           2.8177   -0.9850   -0.4446 H       1  UNL1        0.0436
     10 H           2.8177    0.0841    0.9375 H       1  UNL1        0.0436
     11 H           2.6110    1.9346   -0.5458 H       1  UNL1        0.1220
     12 H           4.7777    0.1111   -1.2926 H       1  UNL1        0.0436
     13 H           4.7777    1.1803    0.0894 H       1  UNL1        0.0436
     14 H           5.2653    2.0527   -2.7947 H       1  UNL1        0.0436
     15 H           5.4297    3.1224   -1.8236 H       1  UNL1        0.0436
     16 H           0.1291   -1.0281    1.7463 H       1  UNL1        0.1220
@<TRIPOS>BOND
     1     1     2    1
     2     2     3    1
     3     3     4    1
     4     4     5    1
     5     5     6    1
     6     1     6    1
     7     1     7    1
     8     1     8    1
     9     2     9    1
    10     2    10    1
    11     3    11    1
    12     4    12    1
    13     4    13    1
    14     5    14    1
    15     5    15    1
    16     6    16    1
