@<TRIPOS>MOLECULE
*****
 9 8 0 0 0
SMALL
GASTEIGER

@<TRIPOS>ATOM
      1 N           1.0581    0.0813   -0.0031 N.3     1  GLY1       -0.3241
      2 CA          2.5281    0.0813   -0.0031 C.3     1  GLY1        0.0493
      3 C           3.0348   -0.3031   -1.3836 C.2     1  GLY1        0.1338
      4 O           4.2843   -0.3654   -1.6074 O.2     1  GLY1       -0.2997
      5 H1          0.7182    0.3393    0.9233 H       1  GLY1        0.1186
      6 H2          0.7181   -0.8500   -0.2429 H       1  GLY1        0.1186
      7 HA1         2.8848   -0.6250    0.7172 H       1  GLY1        0.0497
      8 HA2         2.8848    1.0582    0.2485 H       1  GLY1        0.0497
      9 H           2.3642   -0.5136   -2.1393 H       1  GLY1        0.1040
@<TRIPOS>BOND
     1     1     2    1
     2     2     3    1
     3     3     4    2
     4     1     5    1
     5     1     6    1
     6     2     7    1
     7     2     8    1
     8     3     9    1
