@<TRIPOS>MOLECULE
*****
 37 38 0 0 0
SMALL
GASTEIGER

@<TRIPOS>ATOM
      1 C           0.9531   -0.0484   -0.0739 C.3     1  UNL1       -0.0127
      2 N           2.4231   -0.0484   -0.0739 N.3     1  UNL1       -0.3029
      3 C           2.9131    0.9038   -1.0809 C.3     1  UNL1        0.0114
      4 C           4.4331    0.9038   -1.0809 C.3     1  UNL1        0.0117
      5 N           4.9231    1.8560   -2.0880 N.3     1  UNL1       -0.2996
      6 C           4.4331    3.2042   -1.7669 C.3     1  UNL1        0.0019
      7 C           2.9131    3.2042   -1.7669 C.3     1  UNL1       -0.0260
      8 C           2.4064    4.5983   -1.4348 C.3     1  UNL1       -0.0364
      9 C           0.8864    4.5983   -1.4348 C.3     1  UNL1       -0.0038
     10 N           0.3964    5.9465   -1.1137 N.3     1  UNL1       -0.3160
     11 C          -1.0736    5.9465   -1.1137 C.3     1  UNL1       -0.0038
     12 C           2.4064    2.2196   -0.7256 C.3     1  UNL1       -0.0364
     13 C           6.3931    1.8560   -2.0880 C.3     1  UNL1        0.0117
     14 C           2.9131   -1.3966   -0.3950 C.3     1  UNL1        0.0114
     15 H           0.5964    0.9330    0.1598 H       1  UNL1        0.0391
     16 H           0.5964   -0.7415    0.6591 H       1  UNL1        0.0391
     17 H           0.5964   -0.3366   -1.0406 H       1  UNL1        0.0391
     18 H           2.5564    1.8852   -0.8472 H       1  UNL1        0.0439
     19 H           2.5564    0.6156   -2.0477 H       1  UNL1        0.0439
     20 H           4.7897   -0.0775   -1.3147 H       1  UNL1        0.0439
     21 H           4.7897    1.1921   -0.1142 H       1  UNL1        0.0439
     22 H           4.7897    3.8973   -2.4999 H       1  UNL1        0.0429
     23 H           4.7897    3.4925   -0.8001 H       1  UNL1        0.0429
     24 H           2.5564    2.9160   -2.7336 H       1  UNL1        0.0314
     25 H           2.7631    5.2914   -2.1678 H       1  UNL1        0.0281
     26 H           2.7631    4.8866   -0.4681 H       1  UNL1        0.0281
     27 H           0.5297    3.9052   -0.7018 H       1  UNL1        0.0424
     28 H           0.5297    4.3100   -2.4016 H       1  UNL1        0.0424
     29 H           0.7364    6.6072   -1.8125 H       1  UNL1        0.1219
     30 H          -1.6399    6.1016   -2.0083 H       1  UNL1        0.0424
     31 H          -1.8959    6.3635   -0.5708 H       1  UNL1        0.0424
     32 H           2.1277    1.2420   -1.0593 H       1  UNL1        0.0281
     33 H           2.9001    1.8436    0.1461 H       1  UNL1        0.0281
     34 H           6.9607    2.4757   -1.4256 H       1  UNL1        0.0439
     35 H           7.2182    1.9018   -2.7677 H       1  UNL1        0.0439
     36 H           3.1848   -2.0327    0.4214 H       1  UNL1        0.0439
     37 H           2.4166   -2.1843   -0.9221 H       1  UNL1        0.0439
@<TRIPOS>BOND
     1     1     2    1
     2     2     3    1
     3     3     4    1
     4     4     5    1
     5     5     6    1
     6     6     7    1
     7     7     8    1
     8     8     9    1
     9     9    10    1
    10    10    11    1
    11    11    12    1
    12     7    12    1
    13     5    13    1
    14    13    14    1
    15     2    14    1
    16     1    15    1
    17     1    16    1
    18     1    17    1
    19     3    18    1
    20     3    19    1
    21     4    20    1
    22     4    21    1
    23     6    22    1
    24     6    23    1
    25     7    24    1
    26     8    25    1
    27     8    26    1
    28     9    27    1
    29     9    28    1
    30    10    29    1
    31    11    30    1
    32    11    31    1
    33    12    32    1
    34    12    33    1
    35    13    34    1
    36    13    35    1
    37    14    36    1
    38    14    37    1
