@<TRIPOS>MOLECULE
*****
 15 14 0 0 0
SMALL
GASTEIGER

@<TRIPOS>ATOM
      1 C           1.0548    0.0448   -0.0706 C.3     1  UNL1       -0.0495
      2 C           2.5748    0.0448   -0.0706 C.3     1  UNL1        0.0087
      3 N           3.0648    1.0742    0.8574 N.am    1  UNL1       -0.3158
      4 C           4.5100    1.2737    1.0373 C.2     1  UNL1        0.2099
      5 C           5.4978    0.4156    0.2637 C.3     1  UNL1        0.0121
      6 O           4.9337    2.1636    1.8396 O.2     1  UNL1       -0.2761
      7 H           0.6981   -0.7044   -0.7461 H       1  UNL1        0.0245
      8 H           0.6981    1.0045   -0.3817 H       1  UNL1        0.0245
      9 H           0.6981   -0.1655    0.9160 H       1  UNL1        0.0245
     10 H           2.9314    0.2552   -1.0573 H       1  UNL1        0.0459
     11 H           2.9314   -0.9148    0.2405 H       1  UNL1        0.0459
     12 H           2.4250    1.6299    1.3585 H       1  UNL1        0.1487
     13 H           4.9628   -0.2726   -0.3568 H       1  UNL1        0.0322
     14 H           6.1129   -0.1273    0.9505 H       1  UNL1        0.0322
     15 H           6.1129    1.0427   -0.3473 H       1  UNL1        0.0322
@<TRIPOS>BOND
     1     1     2    1
     2     2     3    1
     3     3     4   am
     4     4     5    1
     5     4     6    2
     6     1     7    1
     7     1     8    1
     8     1     9    1
     9     2    10    1
    10     2    11    1
    11     3    12    1
    12     5    13    1
    13     5    14    1
    14     5    15    1
