@<TRIPOS>MOLECULE
*****
 30 30 0 0 0
SMALL
GASTEIGER

@<TRIPOS>ATOM
      1 C           0.9195   -0.0562   -0.0191 C.3     1  UNL1       -0.0653
      2 C           2.4395   -0.0562   -0.0191 C.3     1  UNL1       -0.0555
      3 C           2.9462   -1.0870    0.9765 C.3     1  UNL1       -0.0450
      4 C           4.4662   -1.0870    0.9765 C.3     1  UNL1        0.0241
      5 C           4.9728   -2.1177    1.9721 C.2     1  UNL1        0.2156
      6 O           4.1470   -2.8125    2.6431 O.2     1  UNL1       -0.2756
      7 N           6.4181   -2.3109    2.1587 N.am    1  UNL1       -0.2991
      8 C           6.9081   -3.3078    3.1215 C.3     1  UNL1        0.0272
      9 C           8.4281   -3.3078    3.1215 C.3     1  UNL1        0.0118
     10 N           8.9181   -4.3047    4.0843 N.3     1  UNL1       -0.3130
     11 C          10.3881   -4.3047    4.0843 C.3     1  UNL1        0.0118
     12 C           7.3733   -1.5073    1.3825 C.3     1  UNL1        0.0272
     13 H           0.5628    0.6694   -0.7199 H       1  UNL1        0.0230
     14 H           0.5628    0.1880    0.9597 H       1  UNL1        0.0230
     15 H           0.5628   -1.0259   -0.2971 H       1  UNL1        0.0230
     16 H           2.7962    0.9136    0.2589 H       1  UNL1        0.0263
     17 H           2.7962   -0.3003   -0.9979 H       1  UNL1        0.0263
     18 H           2.5895   -2.0567    0.6985 H       1  UNL1        0.0270
     19 H           2.5895   -0.8428    1.9553 H       1  UNL1        0.0270
     20 H           4.8228   -0.1172    1.2545 H       1  UNL1        0.0358
     21 H           4.8228   -1.3311   -0.0023 H       1  UNL1        0.0358
     22 H           6.5514   -4.2776    2.8435 H       1  UNL1        0.0477
     23 H           6.5514   -3.0637    4.1003 H       1  UNL1        0.0477
     24 H           8.7847   -2.3381    3.3995 H       1  UNL1        0.0439
     25 H           8.7847   -3.5520    2.1427 H       1  UNL1        0.0439
     26 H           8.5781   -5.2291    3.8193 H       1  UNL1        0.1220
     27 H          10.9428   -5.1072    3.6448 H       1  UNL1        0.0439
     28 H          11.1863   -4.1723    4.7845 H       1  UNL1        0.0439
     29 H           7.3881   -1.6700    0.3250 H       1  UNL1        0.0477
     30 H           7.3930   -0.4401    1.3076 H       1  UNL1        0.0477
@<TRIPOS>BOND
     1     1     2    1
     2     2     3    1
     3     3     4    1
     4     4     5    1
     5     5     6    2
     6     5     7   am
     7     7     8    1
     8     8     9    1
     9     9    10    1
    10    10    11    1
    11    11    12    1
    12     7    12    1
    13     1    13    1
    14     1    14    1
    15     1    15    1
    16     2    16    1
    17     2    17    1
    18     3    18    1
    19     3    19    1
    20     4    20    1
    21     4    21    1
    22     8    22    1
    23     8    23    1
    24     9    24    1
    25     9    25    1
    26    10    26    1
    27    11    27    1
    28    11    28    1
    29    12    29    1
    30    12    30    1
