@<TRIPOS>MOLECULE
*****
 18 17 0 0 0
SMALL
GASTEIGER

@<TRIPOS>ATOM
      1 C           0.9336   -0.0723   -0.0191 C.3     1  UNL1       -0.0653
      2 C           2.4536   -0.0723   -0.0191 C.3     1  UNL1       -0.0555
      3 C           2.9603    1.3536   -0.1617 C.3     1  UNL1       -0.0450
      4 C           4.4803    1.3536   -0.1617 C.3     1  UNL1        0.0237
      5 C           4.9870    2.7796   -0.3043 C.2     1  UNL1        0.2105
      6 N           4.0317    3.8913   -0.4155 N.am    1  UNL1       -0.3293
      7 O           6.2365    3.0107   -0.3274 O.2     1  UNL1       -0.2760
      8 H           0.5770   -1.0761    0.0813 H       1  UNL1        0.0230
      9 H           0.5770    0.3426   -0.9386 H       1  UNL1        0.0230
     10 H           0.5770    0.5165    0.8001 H       1  UNL1        0.0230
     11 H           2.8103   -0.6612   -0.8382 H       1  UNL1        0.0263
     12 H           2.8103   -0.4873    0.9004 H       1  UNL1        0.0263
     13 H           2.6036    1.9425    0.6574 H       1  UNL1        0.0270
     14 H           2.6036    1.7686   -1.0812 H       1  UNL1        0.0270
     15 H           4.8370    0.7648   -0.9808 H       1  UNL1        0.0358
     16 H           4.8370    0.9387    0.7578 H       1  UNL1        0.0358
     17 H           3.0638    3.7123   -0.3976 H       1  UNL1        0.1449
     18 H           4.3599    4.8149   -0.5078 H       1  UNL1        0.1449
@<TRIPOS>BOND
     1     1     2    1
     2     2     3    1
     3     3     4    1
     4     4     5    1
     5     5     6   am
     6     5     7    2
     7     1     8    1
     8     1     9    1
     9     1    10    1
    10     2    11    1
    11     2    12    1
    12     3    13    1
    13     3    14    1
    14     4    15    1
    15     4    16    1
    16     6    17    1
    17     6    18    1
