@<TRIPOS>MOLECULE
*****
 23 22 0 0 0
SMALL
GASTEIGER

@<TRIPOS>ATOM
      1 C           0.9504    0.0128    0.0859 C.3     1  UNL1       -0.0416
      2 C           2.4704    0.0128    0.0859 C.3     1  UNL1        0.0449
      3 O           2.9437    0.1443    1.4182 O.3     1  UNL1       -0.3778
      4 C           4.3637    0.1443    1.4182 C.3     1  UNL1        0.0710
      5 C           4.8704    0.2850    2.8443 C.3     1  UNL1        0.0711
      6 O           6.2904    0.2850    2.8443 O.3     1  UNL1       -0.3752
      7 C           6.7637    0.4165    4.1767 C.3     1  UNL1        0.0708
      8 C           8.2837    0.4165    4.1767 C.3     1  UNL1        0.0676
      9 O           8.7570    0.5479    5.5090 O.3     1  UNL1       -0.3927
     10 H           0.5937   -0.0862   -0.9181 H       1  UNL1        0.0252
     11 H           0.5937    0.9318    0.5021 H       1  UNL1        0.0252
     12 H           0.5937   -0.8071    0.6736 H       1  UNL1        0.0252
     13 H           2.8271    0.8327   -0.5019 H       1  UNL1        0.0557
     14 H           2.8271   -0.9061   -0.3303 H       1  UNL1        0.0557
     15 H           4.7204    0.9642    0.8304 H       1  UNL1        0.0583
     16 H           4.7204   -0.7747    1.0020 H       1  UNL1        0.0583
     17 H           4.5137   -0.5349    3.4321 H       1  UNL1        0.0583
     18 H           4.5137    1.2040    3.2605 H       1  UNL1        0.0583
     19 H           6.4070   -0.4034    4.7644 H       1  UNL1        0.0583
     20 H           6.4070    1.3354    4.5928 H       1  UNL1        0.0583
     21 H           8.6404    1.2364    3.5889 H       1  UNL1        0.0580
     22 H           8.6404   -0.5025    3.7605 H       1  UNL1        0.0580
     23 H           8.4337    1.3810    5.8863 H       1  UNL1        0.2095
@<TRIPOS>BOND
     1     1     2    1
     2     2     3    1
     3     3     4    1
     4     4     5    1
     5     5     6    1
     6     6     7    1
     7     7     8    1
     8     8     9    1
     9     1    10    1
    10     1    11    1
    11     1    12    1
    12     2    13    1
    13     2    14    1
    14     4    15    1
    15     4    16    1
    16     5    17    1
    17     5    18    1
    18     7    19    1
    19     7    20    1
    20     8    21    1
    21     8    22    1
    22     9    23    1
