@<TRIPOS>MOLECULE
*****
 34 34 0 0 0
SMALL
GASTEIGER

@<TRIPOS>ATOM
      1 C           1.0074   -0.0840   -0.0537 C.3     1  UNL1       -0.0416
      2 C           2.5274   -0.0840   -0.0537 C.3     1  UNL1        0.0449
      3 O           3.0007    1.0586    0.6441 O.3     1  UNL1       -0.3782
      4 C           4.4207    1.0586    0.6441 C.3     1  UNL1        0.0672
      5 C           4.9274    2.2816    1.3909 C.3     1  UNL1        0.0665
      6 N           6.3974    2.2816    1.3909 N.ar    1  UNL1       -0.2492
      7 C           7.0938    3.3111    2.0196 C.ar    1  UNL1        0.0487
      8 C           8.5340    3.3111    2.0196 C.ar    1  UNL1        0.0829
      9 C           9.2940    2.1876    1.3335 C.3     1  UNL1       -0.0067
     10 C           8.3063    1.2016    0.7314 C.3     1  UNL1       -0.0393
     11 C           9.0663    0.0782    0.0454 C.3     1  UNL1        0.0241
     12 C           8.0785   -0.9079   -0.5567 C.2     1  UNL1        0.2105
     13 N           6.6333   -0.6786   -0.4168 N.am    1  UNL1       -0.3293
     14 O           8.5021   -1.9305   -1.1812 O.2     1  UNL1       -0.2760
     15 N           9.2304    4.3405    2.6482 N.ar    1  UNL1       -0.1345
     16 N           7.0701    1.2872    0.7837 N.ar    1  UNL1       -0.0654
     17 H           0.6507   -0.9450   -0.5794 H       1  UNL1        0.0252
     18 H           0.6507    0.8018   -0.5364 H       1  UNL1        0.0252
     19 H           0.6507   -0.1089    0.9548 H       1  UNL1        0.0252
     20 H           2.8841   -0.0592   -1.0622 H       1  UNL1        0.0557
     21 H           2.8841   -0.9699    0.4291 H       1  UNL1        0.0557
     22 H           4.7774    1.0834   -0.3644 H       1  UNL1        0.0578
     23 H           4.7774    0.1727    1.1268 H       1  UNL1        0.0578
     24 H           4.5707    2.2568    2.3994 H       1  UNL1        0.0532
     25 H           4.5707    3.1674    0.9082 H       1  UNL1        0.0532
     26 H           6.5778    4.0738    2.4854 H       1  UNL1        0.0845
     27 H           9.9092    1.6839    2.0496 H       1  UNL1        0.0329
     28 H           9.9092    2.5946    0.5584 H       1  UNL1        0.0329
     29 H           7.6911    1.7053    0.0153 H       1  UNL1        0.0273
     30 H           7.6911    0.7947    1.5066 H       1  UNL1        0.0273
     31 H           9.6814   -0.4255    0.7614 H       1  UNL1        0.0358
     32 H           9.6814    0.4851   -0.7298 H       1  UNL1        0.0358
     33 H           6.3051    0.1136    0.0670 H       1  UNL1        0.1449
     34 H           5.9935   -1.3172   -0.8067 H       1  UNL1        0.1449
@<TRIPOS>BOND
     1     1     2    1
     2     2     3    1
     3     3     4    1
     4     4     5    1
     5     5     6    1
     6     6     7   ar
     7     7     8   ar
     8     8     9    1
     9     9    10    1
    10    10    11    1
    11    11    12    1
    12    12    13   am
    13    12    14    2
    14     8    15   ar
    15    15    16   ar
    16     6    16   ar
    17     1    17    1
    18     1    18    1
    19     1    19    1
    20     2    20    1
    21     2    21    1
    22     4    22    1
    23     4    23    1
    24     5    24    1
    25     5    25    1
    26     7    26    1
    27     9    27    1
    28     9    28    1
    29    10    29    1
    30    10    30    1
    31    11    31    1
    32    11    32    1
    33    13    33    1
    34    13    34    1
