@<TRIPOS>MOLECULE
*****
 47 47 0 0 0
SMALL
GASTEIGER

@<TRIPOS>ATOM
      1 C           0.9556    0.0847   -0.0291 C.3     1  UNL1       -0.0191
      2 C           2.4756    0.0847   -0.0291 C.ar    1  UNL1        0.0798
      3 C           3.1957    1.3090    0.2090 C.ar    1  UNL1        0.0484
      4 N           4.5885    1.3090    0.2090 N.ar    1  UNL1       -0.2493
      5 C           5.3235    0.0594   -0.0340 C.3     1  UNL1        0.0665
      6 C           4.3358   -1.0747   -0.2546 C.3     1  UNL1        0.0673
      7 O           5.0458   -2.2818   -0.4894 O.3     1  UNL1       -0.3757
      8 C           4.1230   -3.3413   -0.6954 C.3     1  UNL1        0.0711
      9 C           4.8830   -4.6334   -0.9467 C.3     1  UNL1        0.0711
     10 O           3.9602   -5.6929   -1.1527 O.3     1  UNL1       -0.3752
     11 C           4.6702   -6.9000   -1.3875 C.3     1  UNL1        0.0711
     12 C           3.6825   -8.0341   -1.6081 C.3     1  UNL1        0.0711
     13 O           4.3925   -9.2412   -1.8428 O.3     1  UNL1       -0.3752
     14 C           3.4697  -10.3007   -2.0489 C.3     1  UNL1        0.0711
     15 C           4.2297  -11.5928   -2.3001 C.3     1  UNL1        0.0711
     16 O           3.3070  -12.6523   -2.5062 O.3     1  UNL1       -0.3763
     17 C           4.0170  -13.8594   -2.7410 C.3     1  UNL1        0.0600
     18 C           3.0292  -14.9935   -2.9615 C.3     1  UNL1        0.0166
     19 N           3.7642  -16.2432   -3.2045 N.3     1  UNL1       -0.3279
     20 N           5.2612    2.4528    0.4314 N.ar    1  UNL1       -0.0654
     21 N           3.1720   -1.0993   -0.2594 N.ar    1  UNL1       -0.1348
     22 H           0.5989    1.0750    0.1635 H       1  UNL1        0.0294
     23 H           0.5989   -0.5772    0.7322 H       1  UNL1        0.0294
     24 H           0.5989   -0.2436   -0.9830 H       1  UNL1        0.0294
     25 H           2.6797    2.1863    0.3796 H       1  UNL1        0.0845
     26 H           5.9387   -0.1630    0.8127 H       1  UNL1        0.0532
     27 H           5.9387    0.1705   -0.9024 H       1  UNL1        0.0532
     28 H           3.7206   -0.8523   -1.1014 H       1  UNL1        0.0578
     29 H           3.7206   -1.1858    0.6138 H       1  UNL1        0.0578
     30 H           3.5078   -3.1189   -1.5422 H       1  UNL1        0.0583
     31 H           3.5078   -3.4524    0.1730 H       1  UNL1        0.0583
     32 H           5.4982   -4.8558   -0.0999 H       1  UNL1        0.0583
     33 H           5.4982   -4.5223   -1.8151 H       1  UNL1        0.0583
     34 H           5.2854   -7.1224   -0.5407 H       1  UNL1        0.0583
     35 H           5.2854   -6.7889   -2.2559 H       1  UNL1        0.0583
     36 H           3.0673   -7.8117   -2.4548 H       1  UNL1        0.0583
     37 H           3.0673   -8.1452   -0.7396 H       1  UNL1        0.0583
     38 H           2.8546  -10.0783   -2.8956 H       1  UNL1        0.0583
     39 H           2.8546  -10.4118   -1.1805 H       1  UNL1        0.0583
     40 H           4.8449  -11.8153   -1.4534 H       1  UNL1        0.0583
     41 H           4.8449  -11.4817   -3.1686 H       1  UNL1        0.0583
     42 H           4.6321  -14.0819   -1.8942 H       1  UNL1        0.0572
     43 H           4.6321  -13.7483   -3.6094 H       1  UNL1        0.0572
     44 H           2.4141  -14.7711   -3.8083 H       1  UNL1        0.0444
     45 H           2.4141  -15.1047   -2.0931 H       1  UNL1        0.0444
     46 H           4.3506  -16.1372   -4.0324 H       1  UNL1        0.1183
     47 H           3.1014  -17.0042   -3.3525 H       1  UNL1        0.1183
@<TRIPOS>BOND
     1     1     2    1
     2     2     3   ar
     3     3     4   ar
     4     4     5    1
     5     5     6    1
     6     6     7    1
     7     7     8    1
     8     8     9    1
     9     9    10    1
    10    10    11    1
    11    11    12    1
    12    12    13    1
    13    13    14    1
    14    14    15    1
    15    15    16    1
    16    16    17    1
    17    17    18    1
    18    18    19    1
    19     4    20   ar
    20    20    21   ar
    21     2    21   ar
    22     1    22    1
    23     1    23    1
    24     1    24    1
    25     3    25    1
    26     5    26    1
    27     5    27    1
    28     6    28    1
    29     6    29    1
    30     8    30    1
    31     8    31    1
    32     9    32    1
    33     9    33    1
    34    11    34    1
    35    11    35    1
    36    12    36    1
    37    12    37    1
    38    14    38    1
    39    14    39    1
    40    15    40    1
    41    15    41    1
    42    17    42    1
    43    17    43    1
    44    18    44    1
    45    18    45    1
    46    19    46    1
    47    19    47    1
