@<TRIPOS>MOLECULE
*****
 67 69 0 0 0
SMALL
GASTEIGER

@<TRIPOS>ATOM
      1 C           1.0067   -0.0583    0.0809 C.3     1  UNL1       -0.0652
      2 C           2.5267   -0.0583    0.0809 C.3     1  UNL1       -0.0545
      3 C           3.0333   -0.2251    1.5043 C.3     1  UNL1       -0.0373
      4 C           4.5533   -0.2251    1.5043 C.3     1  UNL1        0.0165
      5 N           5.0433   -0.3863    2.8808 N.am    1  UNL1       -0.2811
      6 C           4.0881   -0.5163    3.9905 C.3     1  UNL1        0.0412
      7 C           2.6696   -0.4528    3.4481 C.ar    1  UNL1       -0.0301
      8 C           1.5494   -0.5581    4.3471 C.ar    1  UNL1       -0.0571
      9 C           0.2054   -0.4979    3.8332 C.ar    1  UNL1       -0.0615
     10 C          -0.9148   -0.6032    4.7322 C.ar    1  UNL1       -0.0617
     11 C          -2.2588   -0.5430    4.2183 C.ar    1  UNL1       -0.0615
     12 C           2.4457   -0.2873    2.0350 C.ar    1  UNL1       -0.0571
     13 C           6.4886   -0.4176    3.1476 C.2     1  UNL1        0.3067
     14 O           7.3144   -0.3052    2.1882 O.2     1  UNL1       -0.2523
     15 N           6.9786   -0.5788    4.5241 N.am    1  UNL1       -0.2693
     16 C           8.4238   -0.6101    4.7909 C.ar    1  UNL1        0.0350
     17 C           8.9039   -0.7681    6.1395 C.ar    1  UNL1       -0.0370
     18 C          10.3198   -0.7987    6.4009 C.ar    1  UNL1       -0.0182
     19 C          10.7999   -0.9567    7.7495 C.ar    1  UNL1        0.1207
     20 O           9.8771   -1.0823    8.8215 O.3     1  UNL1       -0.4901
     21 C           8.4810   -1.0521    8.5638 C.3     1  UNL1        0.1091
     22 C           7.7210   -1.2052    9.8712 C.3     1  UNL1        0.0772
     23 N           6.2758   -1.1740    9.6044 N.ar    1  UNL1       -0.2482
     24 C           5.3707   -1.2971   10.6559 C.ar    1  UNL1        0.0488
     25 C           3.9547   -1.2665   10.3945 C.ar    1  UNL1        0.0829
     26 C           3.4481   -1.0998    8.9711 C.3     1  UNL1       -0.0060
     27 C           4.6303   -0.9886    8.0223 C.3     1  UNL1       -0.0351
     28 C           4.1236   -0.8219    6.5989 C.3     1  UNL1       -0.0066
     29 N           5.2670   -0.7144    5.6812 N.3     1  UNL1       -0.3300
     30 N           3.0496   -1.3897   11.4459 N.ar    1  UNL1       -0.1345
     31 N           5.8273   -1.0264    8.3445 N.ar    1  UNL1       -0.0654
     32 C          12.2158   -0.9873    8.0109 C.ar    1  UNL1       -0.0182
     33 C           9.3597   -0.4827    3.7037 C.ar    1  UNL1       -0.0370
     34 H           0.6500    0.0590   -0.9210 H       1  UNL1        0.0230
     35 H           0.6500    0.7507    0.6836 H       1  UNL1        0.0230
     36 H           0.6500   -0.9848    0.4803 H       1  UNL1        0.0230
     37 H           2.8833    0.8681   -0.3184 H       1  UNL1        0.0263
     38 H           2.8833   -0.8674   -0.5217 H       1  UNL1        0.0263
     39 H           2.6767   -1.1515    1.9036 H       1  UNL1        0.0280
     40 H           2.6767    0.5839    2.1069 H       1  UNL1        0.0280
     41 H           4.9100    0.7013    1.1049 H       1  UNL1        0.0465
     42 H           4.9100   -1.0341    0.9017 H       1  UNL1        0.0465
     43 H           4.2397    0.2817    4.6870 H       1  UNL1        0.0514
     44 H           4.2397   -1.4537    4.4837 H       1  UNL1        0.0514
     45 H           1.7098   -0.6767    5.3597 H       1  UNL1        0.0621
     46 H           0.0450   -0.3793    2.8206 H       1  UNL1        0.0618
     47 H          -0.7544   -0.7218    5.7448 H       1  UNL1        0.0618
     48 H          -3.2902   -0.5472    4.2539 H       1  UNL1        0.0618
     49 H           2.9303   -0.1813    1.1301 H       1  UNL1        0.0621
     50 H           6.3388   -0.6659    5.2673 H       1  UNL1        0.1564
     51 H           8.2332   -0.8593    6.9186 H       1  UNL1        0.0637
     52 H          10.9905   -0.7074    5.6218 H       1  UNL1        0.0655
     53 H           8.2225   -1.8545    7.9049 H       1  UNL1        0.0715
     54 H           8.2225   -0.1191    8.1081 H       1  UNL1        0.0715
     55 H           7.9795   -0.4028   10.5301 H       1  UNL1        0.0543
     56 H           7.9795   -2.1382   10.3268 H       1  UNL1        0.0543
     57 H           5.7147   -1.4103   11.6222 H       1  UNL1        0.0845
     58 H           2.8536   -0.2125    8.9058 H       1  UNL1        0.0330
     59 H           2.8536   -1.9479    8.7025 H       1  UNL1        0.0330
     60 H           5.2247   -1.8759    8.0876 H       1  UNL1        0.0281
     61 H           5.2247   -0.1405    8.2909 H       1  UNL1        0.0281
     62 H           3.5292    0.0654    6.5336 H       1  UNL1        0.0422
     63 H           3.5292   -1.6700    6.3303 H       1  UNL1        0.0422
     64 H           5.8336    0.0941    5.9373 H       1  UNL1        0.1182
     65 H           4.9270   -0.6025    4.7261 H       1  UNL1        0.1182
     66 H          13.0756   -1.0537    8.5778 H       1  UNL1        0.0655
     67 H           9.4241   -0.3629    2.6807 H       1  UNL1        0.0637
@<TRIPOS>BOND
     1     1     2    1
     2     2     3    1
     3     3     4    1
     4     4     5    1
     5     5     6    1
     6     6     7    1
     7     7     8   ar
     8     8     9   ar
     9     9    10   ar
    10    10    11   ar
    11    11    12   ar
    12     7    12   ar
    13     5    13   am
    14    13    14    2
    15    13    15   am
    16    15    16    1
    17    16    17   ar
    18    17    18   ar
    19    18    19   ar
    20    19    20    1
    21    20    21    1
    22    21    22    1
    23    22    23    1
    24    23    24   ar
    25    24    25   ar
    26    25    26    1
    27    26    27    1
    28    27    28    1
    29    28    29    1
    30    25    30   ar
    31    30    31   ar
    32    23    31   ar
    33    19    32   ar
    34    32    33   ar
    35    16    33   ar
    36     1    34    1
    37     1    35    1
    38     1    36    1
    39     2    37    1
    40     2    38    1
    41     3    39    1
    42     3    40    1
    43     4    41    1
    44     4    42    1
    45     6    43    1
    46     6    44    1
    47     8    45    1
    48     9    46    1
    49    10    47    1
    50    11    48    1
    51    12    49    1
    52    15    50    1
    53    17    51    1
    54    18    52    1
    55    21    53    1
    56    21    54    1
    57    22    55    1
    58    22    56    1
    59    24    57    1
    60    26    58    1
    61    26    59    1
    62    27    60    1
    63    27    61    1
    64    28    62    1
    65    28    63    1
    66    29    64    1
    67    29    65    1
    68    32    66    1
    69    33    67    1
