@<TRIPOS>MOLECULE
*****
 32 31 0 0 0
SMALL
GASTEIGER

@<TRIPOS>ATOM
      1 C           1.0711   -0.0217   -0.0669 C.3     1  UNL1       -0.0648
      2 C           2.5911   -0.0217   -0.0669 C.3     1  UNL1       -0.0476
      3 C           3.0978   -0.7775    1.1507 C.3     1  UNL1        0.0239
      4 C           4.6178   -0.7775    1.1507 C.2     1  UNL1        0.2153
      5 O           5.2532   -0.1970    0.2156 O.2     1  UNL1       -0.2756
      6 N           5.3528   -1.4489    2.2323 N.am    1  UNL1       -0.3033
      7 C           4.6178   -2.1202    3.3140 C.3     1  UNL1        0.0032
      8 C           6.8228   -1.4489    2.2323 C.3     1  UNL1        0.0271
      9 C           7.3294   -2.2046    3.4499 C.3     1  UNL1        0.0141
     10 N           8.7994   -2.2046    3.4499 N.3     1  UNL1       -0.3069
     11 C           9.2894   -0.8194    3.4941 C.3     1  UNL1       -0.0130
     12 C           9.2894   -2.9355    4.6275 C.3     1  UNL1       -0.0130
     13 H           0.7144    0.5103   -0.9240 H       1  UNL1        0.0230
     14 H           0.7144    0.4546    0.8224 H       1  UNL1        0.0230
     15 H           0.7144   -1.0300   -0.0991 H       1  UNL1        0.0230
     16 H           2.9478    0.9866   -0.0347 H       1  UNL1        0.0267
     17 H           2.9478   -0.4980   -0.9562 H       1  UNL1        0.0267
     18 H           2.7411   -1.7858    1.1185 H       1  UNL1        0.0358
     19 H           2.7411   -0.3012    2.0400 H       1  UNL1        0.0358
     20 H           3.5658   -2.0171    3.1478 H       1  UNL1        0.0428
     21 H           4.8763   -1.6738    4.2514 H       1  UNL1        0.0428
     22 H           4.8763   -3.1584    3.3299 H       1  UNL1        0.0428
     23 H           7.1794   -0.4406    2.2645 H       1  UNL1        0.0477
     24 H           7.1794   -1.9251    1.3430 H       1  UNL1        0.0477
     25 H           6.9728   -3.2129    3.4177 H       1  UNL1        0.0442
     26 H           6.9728   -1.7283    4.3392 H       1  UNL1        0.0442
     27 H           8.9328   -0.2874    2.6370 H       1  UNL1        0.0391
     28 H          10.3594   -0.8194    3.4941 H       1  UNL1        0.0391
     29 H           8.9328   -0.3431    4.3834 H       1  UNL1        0.0391
     30 H           8.9327   -3.9438    4.5953 H       1  UNL1        0.0391
     31 H           8.9328   -2.4592    5.5168 H       1  UNL1        0.0391
     32 H          10.3594   -2.9355    4.6275 H       1  UNL1        0.0391
@<TRIPOS>BOND
     1     1     2    1
     2     2     3    1
     3     3     4    1
     4     4     5    2
     5     4     6   am
     6     6     7    1
     7     6     8    1
     8     8     9    1
     9     9    10    1
    10    10    11    1
    11    10    12    1
    12     1    13    1
    13     1    14    1
    14     1    15    1
    15     2    16    1
    16     2    17    1
    17     3    18    1
    18     3    19    1
    19     7    20    1
    20     7    21    1
    21     7    22    1
    22     8    23    1
    23     8    24    1
    24     9    25    1
    25     9    26    1
    26    11    27    1
    27    11    28    1
    28    11    29    1
    29    12    30    1
    30    12    31    1
    31    12    32    1
