@<TRIPOS>MOLECULE
*****
 25 24 0 0 0
SMALL
GASTEIGER

@<TRIPOS>ATOM
      1 C           1.0680    0.0408    0.0609 C.3     1  UNL1       -0.0653
      2 C           2.5880    0.0408    0.0609 C.3     1  UNL1       -0.0559
      3 C           3.0947    1.0987   -0.9058 C.3     1  UNL1       -0.0533
      4 C           4.6147    1.0987   -0.9058 C.3     1  UNL1       -0.0531
      5 C           5.1213    2.1565   -1.8725 C.3     1  UNL1       -0.0527
      6 C           6.6413    2.1565   -1.8725 C.3     1  UNL1       -0.0466
      7 C           7.1480    3.2144   -2.8393 C.3     1  UNL1        0.0028
      8 C           8.6680    3.2144   -2.8393 C.2     1  UNL1        0.1203
      9 O           9.3035    4.0269   -3.5817 O.2     1  UNL1       -0.3010
     10 H           0.7114   -0.7039    0.7415 H       1  UNL1        0.0230
     11 H           0.7113   -0.1762   -0.9243 H       1  UNL1        0.0230
     12 H           0.7113    1.0025    0.3656 H       1  UNL1        0.0230
     13 H           2.9447   -0.9209   -0.2437 H       1  UNL1        0.0263
     14 H           2.9447    0.2578    1.0461 H       1  UNL1        0.0263
     15 H           2.7380    2.0604   -0.6011 H       1  UNL1        0.0265
     16 H           2.7380    0.8817   -1.8910 H       1  UNL1        0.0265
     17 H           4.9713    0.1370   -1.2105 H       1  UNL1        0.0265
     18 H           4.9713    1.3157    0.0794 H       1  UNL1        0.0265
     19 H           4.7647    3.1182   -1.5679 H       1  UNL1        0.0265
     20 H           4.7647    1.9395   -2.8577 H       1  UNL1        0.0265
     21 H           6.9980    1.1948   -2.1772 H       1  UNL1        0.0269
     22 H           6.9980    2.3735   -0.8873 H       1  UNL1        0.0269
     23 H           6.7913    4.1761   -2.5346 H       1  UNL1        0.0339
     24 H           6.7913    2.9974   -3.8244 H       1  UNL1        0.0339
     25 H           9.1840    2.5547   -2.2364 H       1  UNL1        0.1026
@<TRIPOS>BOND
     1     1     2    1
     2     2     3    1
     3     3     4    1
     4     4     5    1
     5     5     6    1
     6     6     7    1
     7     7     8    1
     8     8     9    2
     9     1    10    1
    10     1    11    1
    11     1    12    1
    12     2    13    1
    13     2    14    1
    14     3    15    1
    15     3    16    1
    16     4    17    1
    17     4    18    1
    18     5    19    1
    19     5    20    1
    20     6    21    1
    21     6    22    1
    22     7    23    1
    23     7    24    1
    24     8    25    1
