@<TRIPOS>MOLECULE
*****
 28 28 0 0 0
SMALL
GASTEIGER

@<TRIPOS>ATOM
      1 C           1.0546    0.0664   -0.0511 C.3     1  UNL1       -0.0191
      2 C           2.5746    0.0664   -0.0511 C.ar    1  UNL1        0.0798
      3 C           3.2947    1.2955   -0.2631 C.ar    1  UNL1        0.0484
      4 N           4.6876    1.2955   -0.2631 N.ar    1  UNL1       -0.2515
      5 C           5.4226    0.0409   -0.0467 C.3     1  UNL1        0.0432
      6 C           4.4348   -1.0976    0.1497 C.3     1  UNL1       -0.0333
      7 C           5.1948   -2.3948    0.3735 C.3     1  UNL1       -0.0502
      8 C           4.2071   -3.5333    0.5699 C.3     1  UNL1       -0.0406
      9 C           4.9671   -4.8305    0.7937 C.3     1  UNL1       -0.0069
     10 N           4.0118   -5.9315    0.9836 N.3     1  UNL1       -0.3300
     11 N           5.3603    2.4437   -0.4612 N.ar    1  UNL1       -0.0655
     12 N           3.2711   -1.1223    0.1540 N.ar    1  UNL1       -0.1348
     13 H           0.6980    1.0605   -0.2226 H       1  UNL1        0.0294
     14 H           0.6980   -0.2822    0.8956 H       1  UNL1        0.0294
     15 H           0.6980   -0.5792   -0.8263 H       1  UNL1        0.0294
     16 H           2.7787    2.1762   -0.4151 H       1  UNL1        0.0845
     17 H           6.0377    0.1336    0.8239 H       1  UNL1        0.0509
     18 H           6.0377   -0.1635   -0.8980 H       1  UNL1        0.0509
     19 H           3.8197   -1.1902   -0.7209 H       1  UNL1        0.0283
     20 H           3.8197   -0.8932    1.0010 H       1  UNL1        0.0283
     21 H           5.8100   -2.3021    1.2440 H       1  UNL1        0.0266
     22 H           5.8100   -2.5992   -0.4778 H       1  UNL1        0.0266
     23 H           3.5919   -3.6259   -0.3007 H       1  UNL1        0.0277
     24 H           3.5919   -3.3289    1.4212 H       1  UNL1        0.0277
     25 H           5.5822   -4.7378    1.6642 H       1  UNL1        0.0422
     26 H           5.5822   -5.0349   -0.0576 H       1  UNL1        0.0422
     27 H           3.4254   -5.7367    1.7951 H       1  UNL1        0.1182
     28 H           4.5218   -6.8020    1.1338 H       1  UNL1        0.1182
@<TRIPOS>BOND
     1     1     2    1
     2     2     3   ar
     3     3     4   ar
     4     4     5    1
     5     5     6    1
     6     6     7    1
     7     7     8    1
     8     8     9    1
     9     9    10    1
    10     4    11   ar
    11    11    12   ar
    12     2    12   ar
    13     1    13    1
    14     1    14    1
    15     1    15    1
    16     3    16    1
    17     5    17    1
    18     5    18    1
    19     6    19    1
    20     6    20    1
    21     7    21    1
    22     7    22    1
    23     8    23    1
    24     8    24    1
    25     9    25    1
    26     9    26    1
    27    10    27    1
    28    10    28    1
