@<TRIPOS>MOLECULE
*****
 21 20 0 0 0
SMALL
GASTEIGER

@<TRIPOS>ATOM
      1 C           0.9231   -0.0124   -0.0627 C.3     1  UNL1       -0.0652
      2 C           2.4431   -0.0124   -0.0627 C.3     1  UNL1       -0.0545
      3 C           2.9498    0.2256   -1.4759 C.3     1  UNL1       -0.0376
      4 C           4.4698    0.2256   -1.4759 C.3     1  UNL1        0.0116
      5 N           4.9598    0.4558   -2.8426 N.am    1  UNL1       -0.3155
      6 C           6.4050    0.5004   -3.1075 C.2     1  UNL1        0.2099
      7 C           7.3928    0.3085   -1.9682 C.3     1  UNL1        0.0121
      8 O           6.8286    0.6994   -4.2891 O.2     1  UNL1       -0.2761
      9 H           0.5665   -0.1799    0.9321 H       1  UNL1        0.0230
     10 H           0.5664   -0.7901   -0.7052 H       1  UNL1        0.0230
     11 H           0.5664    0.9329   -0.4150 H       1  UNL1        0.0230
     12 H           2.7998   -0.9577    0.2896 H       1  UNL1        0.0263
     13 H           2.7998    0.7654    0.5798 H       1  UNL1        0.0263
     14 H           2.5931    1.1709   -1.8282 H       1  UNL1        0.0280
     15 H           2.5931   -0.5521   -2.1184 H       1  UNL1        0.0280
     16 H           4.8264   -0.7197   -1.1236 H       1  UNL1        0.0462
     17 H           4.8264    1.0034   -0.8334 H       1  UNL1        0.0462
     18 H           4.3200    0.5800   -3.5805 H       1  UNL1        0.1487
     19 H           6.8578    0.1546   -1.0544 H       1  UNL1        0.0322
     20 H           8.0079    1.1794   -1.8790 H       1  UNL1        0.0322
     21 H           8.0079   -0.5436   -2.1692 H       1  UNL1        0.0322
@<TRIPOS>BOND
     1     1     2    1
     2     2     3    1
     3     3     4    1
     4     4     5    1
     5     5     6   am
     6     6     7    1
     7     6     8    2
     8     1     9    1
     9     1    10    1
    10     1    11    1
    11     2    12    1
    12     2    13    1
    13     3    14    1
    14     3    15    1
    15     4    16    1
    16     4    17    1
    17     5    18    1
    18     7    19    1
    19     7    20    1
    20     7    21    1
