@<TRIPOS>MOLECULE
*****
 21 21 0 0 0
SMALL
GASTEIGER

@<TRIPOS>ATOM
      1 C           1.0615   -0.0571    0.0543 C.3     1  UNL1       -0.0191
      2 C           2.5815   -0.0571    0.0543 C.ar    1  UNL1        0.0798
      3 C           3.3016   -1.2833    0.2829 C.ar    1  UNL1        0.0484
      4 N           4.6945   -1.2833    0.2829 N.ar    1  UNL1       -0.2510
      5 C           5.4295   -0.0318    0.0496 C.3     1  UNL1        0.0514
      6 C           4.4417    1.1040   -0.1622 C.3     1  UNL1        0.0433
      7 C           5.2017    2.3980   -0.4035 C.2     1  UNL1        0.2122
      8 N           6.6717    2.3980   -0.4035 N.am    1  UNL1       -0.3293
      9 O           4.5663    3.4800   -0.6052 O.2     1  UNL1       -0.2760
     10 N           5.3672   -2.4287    0.4965 N.ar    1  UNL1       -0.0655
     11 N           3.2780    1.1287   -0.1668 N.ar    1  UNL1       -0.1348
     12 H           0.7049   -1.0488    0.2392 H       1  UNL1        0.0294
     13 H           0.7049    0.2786   -0.8970 H       1  UNL1        0.0294
     14 H           0.7049    0.5989    0.8207 H       1  UNL1        0.0294
     15 H           2.7856   -2.1618    0.4467 H       1  UNL1        0.0845
     16 H           6.0446   -0.1362   -0.8197 H       1  UNL1        0.0514
     17 H           6.0446    0.1841    0.8980 H       1  UNL1        0.0514
     18 H           3.8266    1.2084    0.7070 H       1  UNL1        0.0376
     19 H           3.8266    0.8881   -1.0107 H       1  UNL1        0.0376
     20 H           7.1640    1.5599   -0.2472 H       1  UNL1        0.1449
     21 H           7.1640    3.2362   -0.5598 H       1  UNL1        0.1449
@<TRIPOS>BOND
     1     1     2    1
     2     2     3   ar
     3     3     4   ar
     4     4     5    1
     5     5     6    1
     6     6     7    1
     7     7     8   am
     8     7     9    2
     9     4    10   ar
    10    10    11   ar
    11     2    11   ar
    12     1    12    1
    13     1    13    1
    14     1    14    1
    15     3    15    1
    16     5    16    1
    17     5    17    1
    18     6    18    1
    19     6    19    1
    20     8    20    1
    21     8    21    1
