@<TRIPOS>MOLECULE
*****
 11 10 0 0 0
SMALL
GASTEIGER

@<TRIPOS>ATOM
      1 C           0.9293   -0.0708    0.0012 C.3     1  UNL1       -0.0655
      2 C           2.4493   -0.0708    0.0012 C.3     1  UNL1       -0.0588
      3 C           2.9560    0.9224   -1.0320 C.3     1  UNL1       -0.0655
      4 H           0.5727   -0.7699    0.7285 H       1  UNL1        0.0230
      5 H           0.5727   -0.3511   -0.9679 H       1  UNL1        0.0230
      6 H           0.5727    0.9086    0.2430 H       1  UNL1        0.0230
      7 H           2.8060   -1.0502   -0.2406 H       1  UNL1        0.0260
      8 H           2.8060    0.2095    0.9703 H       1  UNL1        0.0260
      9 H           2.5993    0.6421   -2.0010 H       1  UNL1        0.0230
     10 H           4.0260    0.9224   -1.0320 H       1  UNL1        0.0230
     11 H           2.5993    1.9018   -0.7902 H       1  UNL1        0.0230
@<TRIPOS>BOND
     1     1     2    1
     2     2     3    1
     3     1     4    1
     4     1     5    1
     5     1     6    1
     6     2     7    1
     7     2     8    1
     8     3     9    1
     9     3    10    1
    10     3    11    1
