@<TRIPOS>MOLECULE
*****
 29 29 0 0 0
SMALL
GASTEIGER

@<TRIPOS>ATOM
      1 N           1.0366   -0.0716    0.0595 N.am    1  UNL1       -0.3293
      2 C           2.5066   -0.0716    0.0595 C.2     1  UNL1        0.2122
      3 O           3.1420   -0.9604   -0.5897 O.2     1  UNL1       -0.2760
      4 C           3.2666    0.9914    0.8359 C.3     1  UNL1        0.0433
      5 C           4.7610    0.7671    0.6720 C.3     1  UNL1        0.0514
      6 N           5.4960    1.7952    1.4229 N.ar    1  UNL1       -0.2510
      7 C           6.8888    1.7952    1.4229 C.ar    1  UNL1        0.0486
      8 C           7.6089    2.8024    2.1586 C.ar    1  UNL1        0.0829
      9 C           6.8489    3.8654    2.9350 C.3     1  UNL1       -0.0068
     10 C           5.3545    3.6411    2.7711 C.3     1  UNL1       -0.0411
     11 C           4.5945    4.7041    3.5476 C.3     1  UNL1        0.0031
     12 C           3.1001    4.4798    3.3837 C.2     1  UNL1        0.1203
     13 O           2.2742    5.2599    3.9535 O.2     1  UNL1       -0.3010
     14 N           9.0017    2.8024    2.1586 N.ar    1  UNL1       -0.1345
     15 N           4.8233    2.7361    2.1102 N.ar    1  UNL1       -0.0654
     16 H           0.5443   -0.7601   -0.4434 H       1  UNL1        0.1449
     17 H           0.5443    0.6169    0.5623 H       1  UNL1        0.1449
     18 H           3.0081    0.9292    1.8723 H       1  UNL1        0.0376
     19 H           3.0081    1.9598    0.4613 H       1  UNL1        0.0376
     20 H           5.0195    0.8293   -0.3644 H       1  UNL1        0.0514
     21 H           5.0195   -0.2013    1.0466 H       1  UNL1        0.0514
     22 H           7.4048    1.0734    0.8958 H       1  UNL1        0.0845
     23 H           7.1074    4.8338    2.5604 H       1  UNL1        0.0329
     24 H           7.1074    3.8032    3.9714 H       1  UNL1        0.0329
     25 H           5.0960    2.6727    3.1457 H       1  UNL1        0.0273
     26 H           5.0960    3.7033    1.7347 H       1  UNL1        0.0273
     27 H           4.8530    5.6725    3.1730 H       1  UNL1        0.0339
     28 H           4.8530    4.6419    4.5840 H       1  UNL1        0.0339
     29 H           2.7561    3.6941    2.8099 H       1  UNL1        0.1026
@<TRIPOS>BOND
     1     1     2   am
     2     2     3    2
     3     2     4    1
     4     4     5    1
     5     5     6    1
     6     6     7   ar
     7     7     8   ar
     8     8     9    1
     9     9    10    1
    10    10    11    1
    11    11    12    1
    12    12    13    2
    13     8    14   ar
    14    14    15   ar
    15     6    15   ar
    16     1    16    1
    17     1    17    1
    18     4    18    1
    19     4    19    1
    20     5    20    1
    21     5    21    1
    22     7    22    1
    23     9    23    1
    24     9    24    1
    25    10    25    1
    26    10    26    1
    27    11    27    1
    28    11    28    1
    29    12    29    1
