@<TRIPOS>MOLECULE
*****
 20 20 0 0 0
SMALL
GASTEIGER

@<TRIPOS>ATOM
      1 N           1.0241    0.0478    0.0844 N.3     1  UNL1       -0.3283
      2 C           2.4941    0.0478    0.0844 C.3     1  UNL1        0.0128
      3 C           3.0008   -1.3420   -0.2648 C.3     1  UNL1        0.0554
      4 N           4.4708   -1.3420   -0.2648 N.ar    1  UNL1       -0.2502
      5 C           5.1672   -2.5119   -0.5587 C.ar    1  UNL1        0.0510
      6 C           6.6074   -2.5119   -0.5587 C.ar    1  UNL1        0.1081
      7 C           7.3674   -1.2352   -0.2379 C.3     1  UNL1        0.0894
      8 O           6.4447   -0.1884    0.0251 O.3     1  UNL1       -0.3888
      9 N           7.3038   -3.6818   -0.8526 N.ar    1  UNL1       -0.1322
     10 N           5.1435   -0.2120    0.0192 N.ar    1  UNL1       -0.0653
     11 H           0.6841    0.9805    0.3187 H       1  UNL1        0.1183
     12 H           0.6841   -0.6214    0.7750 H       1  UNL1        0.1183
     13 H           2.8508    0.3242    1.0546 H       1  UNL1        0.0440
     14 H           2.8508    0.7499   -0.6400 H       1  UNL1        0.0440
     15 H           2.6441   -1.6184   -1.2350 H       1  UNL1        0.0522
     16 H           2.6441   -2.0441    0.4597 H       1  UNL1        0.0522
     17 H           4.6512   -3.3787   -0.7764 H       1  UNL1        0.0846
     18 H           7.9826   -0.9674   -1.0714 H       1  UNL1        0.0624
     19 H           7.9826   -1.3931    0.6232 H       1  UNL1        0.0624
     20 H           5.8870   -0.0453   -0.7556 H       1  UNL1        0.2099
@<TRIPOS>BOND
     1     1     2    1
     2     2     3    1
     3     3     4    1
     4     4     5   ar
     5     5     6   ar
     6     6     7    1
     7     7     8    1
     8     6     9   ar
     9     9    10   ar
    10     4    10   ar
    11     1    11    1
    12     1    12    1
    13     2    13    1
    14     2    14    1
    15     3    15    1
    16     3    16    1
    17     5    17    1
    18     7    18    1
    19     7    19    1
    20     8    20    1
