@<TRIPOS>MOLECULE
*****
 11 10 0 0 0
SMALL
GASTEIGER

@<TRIPOS>ATOM
      1 C           1.0999    0.0043   -0.0000 C.3     1  UNL1       -0.0655
      2 C           2.6199    0.0043   -0.0000 C.3     1  UNL1       -0.0588
      3 C           3.1266    0.7793    1.2054 C.3     1  UNL1       -0.0655
      4 H           0.7432   -0.5414   -0.8485 H       1  UNL1        0.0230
      5 H           0.7432    1.0119   -0.0483 H       1  UNL1        0.0230
      6 H           0.7432   -0.4578    0.8968 H       1  UNL1        0.0230
      7 H           2.9766    0.4663   -0.8968 H       1  UNL1        0.0260
      8 H           2.9766   -1.0034    0.0482 H       1  UNL1        0.0260
      9 H           2.7699    1.7870    1.1571 H       1  UNL1        0.0230
     10 H           4.1966    0.7793    1.2054 H       1  UNL1        0.0230
     11 H           2.7699    0.3173    2.1022 H       1  UNL1        0.0230
@<TRIPOS>BOND
     1     1     2    1
     2     2     3    1
     3     1     4    1
     4     1     5    1
     5     1     6    1
     6     2     7    1
     7     2     8    1
     8     3     9    1
     9     3    10    1
    10     3    11    1
