@<TRIPOS>MOLECULE
*****
 93 97 0 0 0
SMALL
GASTEIGER

@<TRIPOS>ATOM
      1 C           0.9924    0.0512    0.0855 C.3     1  UNL1       -0.0621
      2 C           2.5124    0.0512    0.0855 C.3     1  UNL1       -0.0189
      3 C           3.0190    1.0803    1.0829 C.3     1  UNL1        0.1176
      4 O           4.4390    1.0803    1.0829 O.2     1  UNL1       -0.3933
      5 N           5.1240    1.9322    1.9087 N.2     1  UNL1       -0.0826
      6 C           6.4397    1.9322    1.9087 C.2     1  UNL1        0.1333
      7 C           7.1997    2.8775    2.8248 C.2     1  UNL1        0.0738
      8 C           6.5195    3.7235    3.6448 C.2     1  UNL1        0.0694
      9 C           7.2795    4.6687    4.5609 C.2     1  UNL1        0.2537
     10 O           8.5504    4.6687    4.5609 O.2     1  UNL1       -0.2695
     11 N           6.5445    5.5828    5.4469 N.am    1  UNL1       -0.2609
     12 C           5.0745    5.5828    5.4469 C.3     1  UNL1        0.0655
     13 C           4.5678    4.5538    4.4495 C.ar    1  UNL1        0.1004
     14 C           3.1519    4.3648    4.2664 C.ar    1  UNL1        0.0503
     15 N           2.6876    3.4219    3.3524 N.ar    1  UNL1       -0.2492
     16 C           3.6428    2.6196    2.5748 C.3     1  UNL1        0.0665
     17 C           5.0613    3.0117    2.9549 C.3     1  UNL1        0.0673
     18 O           5.9841    2.2367    2.2038 O.3     1  UNL1       -0.3757
     19 C           7.3093    2.6031    2.5589 C.3     1  UNL1        0.0711
     20 C           8.2970    1.7735    1.7548 C.3     1  UNL1        0.0711
     21 O           9.6222    2.1399    2.1099 O.3     1  UNL1       -0.3752
     22 C          10.5449    1.3649    1.3587 C.3     1  UNL1        0.0711
     23 C          11.9634    1.7570    1.7388 C.3     1  UNL1        0.0711
     24 O          12.8862    0.9820    0.9877 O.3     1  UNL1       -0.3752
     25 C          14.2114    1.3484    1.3428 C.3     1  UNL1        0.0711
     26 C          15.1991    0.5188    0.5387 C.3     1  UNL1        0.0711
     27 O          16.5243    0.8852    0.8938 O.3     1  UNL1       -0.3752
     28 C          17.4470    0.1102    0.1426 C.3     1  UNL1        0.0711
     29 C          18.8655    0.5023    0.5227 C.3     1  UNL1        0.0711
     30 O          19.7883   -0.2727   -0.2284 O.3     1  UNL1       -0.3763
     31 C          21.1135    0.0937    0.1267 C.3     1  UNL1        0.0600
     32 C          22.1012   -0.7359   -0.6774 C.3     1  UNL1        0.0166
     33 N          23.4730   -0.3566   -0.3098 N.3     1  UNL1       -0.3279
     34 N           1.3648    3.2453    3.1813 N.ar    1  UNL1       -0.0653
     35 N           5.4729    3.7936    3.7127 N.ar    1  UNL1       -0.1329
     36 C           7.2795    6.4970    6.3329 C.ar    1  UNL1        0.0449
     37 C           6.5594    7.3926    7.2010 C.ar    1  UNL1       -0.0397
     38 C           7.2795    8.2882    8.0690 C.ar    1  UNL1       -0.0600
     39 C           6.5594    9.1838    8.9371 C.ar    1  UNL1       -0.0611
     40 C           7.2795   10.0794    9.8051 C.ar    1  UNL1       -0.0520
     41 C           4.9995    3.7235    3.6448 C.ar    1  UNL1        0.0104
     42 N           8.6697    2.8775    2.8248 N.pl3   1  UNL1       -0.3116
     43 C           9.4047    3.7916    3.7108 C.ar    1  UNL1        0.0408
     44 C          10.8449    3.7916    3.7108 C.ar    1  UNL1       -0.0399
     45 C          11.5650    4.6872    4.5789 C.ar    1  UNL1       -0.0600
     46 C          13.0052    4.6872    4.5789 C.ar    1  UNL1       -0.0610
     47 C          13.7253    5.5828    5.4469 C.ar    1  UNL1       -0.0506
     48 C           7.1997    0.9870    0.9925 C.ar    1  UNL1        0.0265
     49 H           0.6357   -0.6732   -0.6166 H       1  UNL1        0.0231
     50 H           0.6357    1.0215   -0.1908 H       1  UNL1        0.0231
     51 H           0.6357   -0.1946    1.0639 H       1  UNL1        0.0231
     52 H           2.8690    0.2971   -0.8929 H       1  UNL1        0.0296
     53 H           2.8690   -0.9190    0.3618 H       1  UNL1        0.0296
     54 H           2.6624    0.8344    2.0613 H       1  UNL1        0.0723
     55 H           2.6624    2.0505    0.8066 H       1  UNL1        0.0723
     56 H           4.7178    6.5531    5.1706 H       1  UNL1        0.0534
     57 H           4.7178    5.3370    6.4253 H       1  UNL1        0.0534
     58 H           2.4812    4.9281    4.8123 H       1  UNL1        0.0846
     59 H           3.4912    2.7976    1.5307 H       1  UNL1        0.0532
     60 H           3.4912    1.5815    2.7854 H       1  UNL1        0.0532
     61 H           5.2129    2.8337    3.9991 H       1  UNL1        0.0578
     62 H           5.2129    4.0498    2.7444 H       1  UNL1        0.0578
     63 H           7.4609    2.4251    3.6030 H       1  UNL1        0.0583
     64 H           7.4609    3.6412    2.3483 H       1  UNL1        0.0583
     65 H           8.1454    1.9515    0.7107 H       1  UNL1        0.0583
     66 H           8.1454    0.7354    1.9653 H       1  UNL1        0.0583
     67 H          10.3933    1.5429    0.3146 H       1  UNL1        0.0583
     68 H          10.3933    0.3268    1.5693 H       1  UNL1        0.0583
     69 H          12.1150    1.5790    2.7830 H       1  UNL1        0.0583
     70 H          12.1150    2.7951    1.5283 H       1  UNL1        0.0583
     71 H          14.3630    1.1704    2.3869 H       1  UNL1        0.0583
     72 H          14.3630    2.3865    1.1322 H       1  UNL1        0.0583
     73 H          15.0475    0.6968   -0.5054 H       1  UNL1        0.0583
     74 H          15.0475   -0.5193    0.7492 H       1  UNL1        0.0583
     75 H          17.2954    0.2882   -0.9015 H       1  UNL1        0.0583
     76 H          17.2954   -0.9279    0.3532 H       1  UNL1        0.0583
     77 H          19.0171    0.3243    1.5669 H       1  UNL1        0.0583
     78 H          19.0171    1.5404    0.3122 H       1  UNL1        0.0583
     79 H          21.2651   -0.0843    1.1708 H       1  UNL1        0.0572
     80 H          21.2651    1.1318   -0.0839 H       1  UNL1        0.0572
     81 H          21.9496   -0.5579   -1.7215 H       1  UNL1        0.0444
     82 H          21.9496   -1.7740   -0.4668 H       1  UNL1        0.0444
     83 H          23.6176    0.6329   -0.5105 H       1  UNL1        0.1183
     84 H          24.1359   -0.9133   -0.8494 H       1  UNL1        0.1183
     85 H           5.5274    7.3926    7.2010 H       1  UNL1        0.0636
     86 H           8.3115    8.2882    8.0690 H       1  UNL1        0.0618
     87 H           5.5274    9.1838    8.9371 H       1  UNL1        0.0618
     88 H           7.6698   10.7654   10.4700 H       1  UNL1        0.0624
     89 H           9.1619    2.2652    2.2314 H       1  UNL1        0.1522
     90 H          11.3609    3.1499    3.0888 H       1  UNL1        0.0636
     91 H          11.0490    5.3290    5.2009 H       1  UNL1        0.0618
     92 H          13.5212    4.0455    3.9568 H       1  UNL1        0.0618
     93 H          14.3575    6.1686    6.0146 H       1  UNL1        0.0625
@<TRIPOS>BOND
     1     1     2    1
     2     2     3    1
     3     3     4    1
     4     4     5    1
     5     5     6    2
     6     6     7    1
     7     7     8    2
     8     8     9    1
     9     9    10    2
    10     9    11   am
    11    11    12    1
    12    12    13    1
    13    13    14   ar
    14    14    15   ar
    15    15    16    1
    16    16    17    1
    17    17    18    1
    18    18    19    1
    19    19    20    1
    20    20    21    1
    21    21    22    1
    22    22    23    1
    23    23    24    1
    24    24    25    1
    25    25    26    1
    26    26    27    1
    27    27    28    1
    28    28    29    1
    29    29    30    1
    30    30    31    1
    31    31    32    1
    32    32    33    1
    33    15    34   ar
    34    34    35   ar
    35    13    35   ar
    36    11    36    1
    37    36    37   ar
    38    37    38   ar
    39    38    39   ar
    40    39    40   ar
    41    40    41   ar
    42    36    41   ar
    43     8    41    1
    44     7    42    1
    45    42    43    1
    46    43    44   ar
    47    44    45   ar
    48    45    46   ar
    49    46    47   ar
    50    47    48   ar
    51    43    48   ar
    52     6    48    1
    53     1    49    1
    54     1    50    1
    55     1    51    1
    56     2    52    1
    57     2    53    1
    58     3    54    1
    59     3    55    1
    60    12    56    1
    61    12    57    1
    62    14    58    1
    63    16    59    1
    64    16    60    1
    65    17    61    1
    66    17    62    1
    67    19    63    1
    68    19    64    1
    69    20    65    1
    70    20    66    1
    71    22    67    1
    72    22    68    1
    73    23    69    1
    74    23    70    1
    75    25    71    1
    76    25    72    1
    77    26    73    1
    78    26    74    1
    79    28    75    1
    80    28    76    1
    81    29    77    1
    82    29    78    1
    83    31    79    1
    84    31    80    1
    85    32    81    1
    86    32    82    1
    87    33    83    1
    88    33    84    1
    89    37    85    1
    90    38    86    1
    91    39    87    1
    92    40    88    1
    93    42    89    1
    94    44    90    1
    95    45    91    1
    96    46    92    1
    97    47    93    1
