@<TRIPOS>MOLECULE
*****
 23 23 0 0 0
SMALL
GASTEIGER

@<TRIPOS>ATOM
      1 C           0.9264    0.0497    0.0459 C.3     1  UNL1       -0.0524
      2 C           2.4464    0.0497    0.0459 C.3     1  UNL1       -0.0039
      3 N           2.9364   -0.8444    1.1048 N.3     1  UNL1       -0.3026
      4 C           4.4064   -0.8444    1.1048 C.3     1  UNL1       -0.0011
      5 C           4.9131   -1.7690    2.1997 C.3     1  UNL1       -0.0402
      6 C           6.4331   -1.7690    2.1997 C.3     1  UNL1       -0.0507
      7 C           6.9397   -2.6936    3.2946 C.3     1  UNL1       -0.0402
      8 C           2.4464   -2.2085    0.8599 C.3     1  UNL1       -0.0011
      9 H           0.5697    0.7006   -0.7248 H       1  UNL1        0.0242
     10 H           0.5697    0.3918    0.9950 H       1  UNL1        0.0242
     11 H           0.5697   -0.9432   -0.1324 H       1  UNL1        0.0242
     12 H           2.8031    1.0427    0.2242 H       1  UNL1        0.0424
     13 H           2.8031   -0.2923   -0.9031 H       1  UNL1        0.0424
     14 H           4.7631    0.1485    1.2831 H       1  UNL1        0.0426
     15 H           4.7631   -1.1865    0.1558 H       1  UNL1        0.0426
     16 H           4.5564   -2.7619    2.0214 H       1  UNL1        0.0278
     17 H           4.5564   -1.4270    3.1488 H       1  UNL1        0.0278
     18 H           6.7897   -0.7761    2.3780 H       1  UNL1        0.0266
     19 H           6.7897   -2.1111    1.2507 H       1  UNL1        0.0266
     20 H           7.0794   -2.3588    4.3013 H       1  UNL1        0.0278
     21 H           7.7074   -3.4168    3.4754 H       1  UNL1        0.0278
     22 H           1.5651   -2.5188    1.3813 H       1  UNL1        0.0426
     23 H           2.1320   -2.6524   -0.0615 H       1  UNL1        0.0426
@<TRIPOS>BOND
     1     1     2    1
     2     2     3    1
     3     3     4    1
     4     4     5    1
     5     5     6    1
     6     6     7    1
     7     7     8    1
     8     3     8    1
     9     1     9    1
    10     1    10    1
    11     1    11    1
    12     2    12    1
    13     2    13    1
    14     4    14    1
    15     4    15    1
    16     5    16    1
    17     5    17    1
    18     6    18    1
    19     6    19    1
    20     7    20    1
    21     7    21    1
    22     8    22    1
    23     8    23    1
