@<TRIPOS>MOLECULE
*****
 56 56 0 0 0
SMALL
GASTEIGER

@<TRIPOS>ATOM
      1 C           1.0555   -0.0036    0.0831 C.3     1  UNL1       -0.0416
      2 C           2.5755   -0.0036    0.0831 C.3     1  UNL1        0.0449
      3 O           3.0488   -1.3363   -0.0445 O.3     1  UNL1       -0.3778
      4 C           4.4688   -1.3363   -0.0445 C.3     1  UNL1        0.0710
      5 C           4.9755   -2.7629   -0.1811 C.3     1  UNL1        0.0711
      6 O           6.3955   -2.7629   -0.1811 O.3     1  UNL1       -0.3752
      7 C           6.8688   -4.0955   -0.3087 C.3     1  UNL1        0.0711
      8 C           8.3888   -4.0955   -0.3087 C.3     1  UNL1        0.0711
      9 O           8.8622   -5.4282   -0.4363 O.3     1  UNL1       -0.3752
     10 C          10.2822   -5.4282   -0.4363 C.3     1  UNL1        0.0711
     11 C          10.7888   -6.8548   -0.5729 C.3     1  UNL1        0.0711
     12 O          12.2088   -6.8548   -0.5729 O.3     1  UNL1       -0.3752
     13 C          12.6821   -8.1875   -0.7005 C.3     1  UNL1        0.0711
     14 C          14.2021   -8.1875   -0.7005 C.3     1  UNL1        0.0711
     15 O          14.6755   -9.5202   -0.8281 O.3     1  UNL1       -0.3752
     16 C          16.0955   -9.5202   -0.8281 C.3     1  UNL1        0.0711
     17 C          16.6021  -10.9467   -0.9647 C.3     1  UNL1        0.0711
     18 O          18.0221  -10.9467   -0.9647 O.3     1  UNL1       -0.3757
     19 C          18.4955  -12.2794   -1.0923 C.3     1  UNL1        0.0673
     20 C          20.0155  -12.2794   -1.0923 C.3     1  UNL1        0.0665
     21 N          20.5055  -13.6590   -1.2244 N.ar    1  UNL1       -0.2495
     22 C          21.8748  -13.9124   -1.2486 C.ar    1  UNL1        0.0455
     23 C          22.3549  -15.2641   -1.3781 C.ar    1  UNL1        0.0693
     24 N          23.7243  -15.5174   -1.4023 N.ar    1  UNL1       -0.1380
     25 N          19.6311  -14.6770   -1.3219 N.ar    1  UNL1       -0.0657
     26 H           0.6988    1.0006    0.1793 H       1  UNL1        0.0252
     27 H           0.6988   -0.5890    0.9047 H       1  UNL1        0.0252
     28 H           0.6988   -0.4224   -0.8346 H       1  UNL1        0.0252
     29 H           2.9322    0.4152    1.0008 H       1  UNL1        0.0557
     30 H           2.9322    0.5818   -0.7385 H       1  UNL1        0.0557
     31 H           4.8255   -0.9175    0.8732 H       1  UNL1        0.0583
     32 H           4.8255   -0.7509   -0.8661 H       1  UNL1        0.0583
     33 H           4.6188   -3.1817   -1.0988 H       1  UNL1        0.0583
     34 H           4.6188   -3.3482    0.6405 H       1  UNL1        0.0583
     35 H           6.5122   -4.5144   -1.2264 H       1  UNL1        0.0583
     36 H           6.5122   -4.6809    0.5129 H       1  UNL1        0.0583
     37 H           8.7455   -3.6767    0.6091 H       1  UNL1        0.0583
     38 H           8.7455   -3.5102   -1.1303 H       1  UNL1        0.0583
     39 H          10.6388   -5.0094    0.4814 H       1  UNL1        0.0583
     40 H          10.6388   -4.8429   -1.2579 H       1  UNL1        0.0583
     41 H          10.4322   -7.2736   -1.4906 H       1  UNL1        0.0583
     42 H          10.4322   -7.4402    0.2487 H       1  UNL1        0.0583
     43 H          12.3255   -8.6063   -1.6182 H       1  UNL1        0.0583
     44 H          12.3255   -8.7729    0.1211 H       1  UNL1        0.0583
     45 H          14.5588   -7.7686    0.2173 H       1  UNL1        0.0583
     46 H          14.5588   -7.6021   -1.5221 H       1  UNL1        0.0583
     47 H          16.4521   -9.1013    0.0897 H       1  UNL1        0.0583
     48 H          16.4521   -8.9348   -1.6497 H       1  UNL1        0.0583
     49 H          16.2455  -11.3656   -1.8824 H       1  UNL1        0.0583
     50 H          16.2455  -11.5321   -0.1431 H       1  UNL1        0.0583
     51 H          18.1388  -12.6983   -2.0100 H       1  UNL1        0.0578
     52 H          18.1388  -12.8648   -0.2707 H       1  UNL1        0.0578
     53 H          20.3721  -11.8606   -0.1745 H       1  UNL1        0.0532
     54 H          20.3721  -11.6940   -1.9139 H       1  UNL1        0.0532
     55 H          22.5455  -13.1316   -1.1739 H       1  UNL1        0.0842
     56 H          21.6843  -16.0449   -1.4528 H       1  UNL1        0.0864
@<TRIPOS>BOND
     1     1     2    1
     2     2     3    1
     3     3     4    1
     4     4     5    1
     5     5     6    1
     6     6     7    1
     7     7     8    1
     8     8     9    1
     9     9    10    1
    10    10    11    1
    11    11    12    1
    12    12    13    1
    13    13    14    1
    14    14    15    1
    15    15    16    1
    16    16    17    1
    17    17    18    1
    18    18    19    1
    19    19    20    1
    20    20    21    1
    21    21    22   ar
    22    22    23   ar
    23    23    24   ar
    24    24    25   ar
    25    21    25   ar
    26     1    26    1
    27     1    27    1
    28     1    28    1
    29     2    29    1
    30     2    30    1
    31     4    31    1
    32     4    32    1
    33     5    33    1
    34     5    34    1
    35     7    35    1
    36     7    36    1
    37     8    37    1
    38     8    38    1
    39    10    39    1
    40    10    40    1
    41    11    41    1
    42    11    42    1
    43    13    43    1
    44    13    44    1
    45    14    45    1
    46    14    46    1
    47    16    47    1
    48    16    48    1
    49    17    49    1
    50    17    50    1
    51    19    51    1
    52    19    52    1
    53    20    53    1
    54    20    54    1
    55    22    55    1
    56    23    56    1
