@<TRIPOS>MOLECULE
*****
 29 28 0 0 0
SMALL
GASTEIGER

@<TRIPOS>ATOM
      1 C           0.9110   -0.0093    0.0447 C.3     1  UNL1       -0.0653
      2 C           2.4310   -0.0093    0.0447 C.3     1  UNL1       -0.0559
      3 C           2.9377    1.4092    0.2481 C.3     1  UNL1       -0.0533
      4 C           4.4577    1.4092    0.2481 C.3     1  UNL1       -0.0531
      5 C           4.9643    2.8278    0.4515 C.3     1  UNL1       -0.0531
      6 C           6.4843    2.8278    0.4515 C.3     1  UNL1       -0.0531
      7 C           6.9910    4.2464    0.6550 C.3     1  UNL1       -0.0533
      8 C           8.5110    4.2464    0.6550 C.3     1  UNL1       -0.0559
      9 C           9.0177    5.6649    0.8584 C.3     1  UNL1       -0.0653
     10 H           0.5544   -1.0079   -0.0985 H       1  UNL1        0.0230
     11 H           0.5544    0.6140   -0.7485 H       1  UNL1        0.0230
     12 H           0.5544    0.3660    0.9811 H       1  UNL1        0.0230
     13 H           2.7877   -0.3846   -0.8917 H       1  UNL1        0.0263
     14 H           2.7877   -0.6326    0.8379 H       1  UNL1        0.0263
     15 H           2.5810    1.7845    1.1845 H       1  UNL1        0.0265
     16 H           2.5810    2.0326   -0.5451 H       1  UNL1        0.0265
     17 H           4.8144    1.0340   -0.6883 H       1  UNL1        0.0265
     18 H           4.8144    0.7859    1.0413 H       1  UNL1        0.0265
     19 H           4.6077    3.2031    1.3880 H       1  UNL1        0.0265
     20 H           4.6077    3.4511   -0.3417 H       1  UNL1        0.0265
     21 H           6.8410    2.4525   -0.4849 H       1  UNL1        0.0265
     22 H           6.8410    2.2045    1.2447 H       1  UNL1        0.0265
     23 H           6.6343    4.6216    1.5914 H       1  UNL1        0.0265
     24 H           6.6343    4.8697   -0.1382 H       1  UNL1        0.0265
     25 H           8.8677    3.8711   -0.2814 H       1  UNL1        0.0263
     26 H           8.8677    3.6230    1.4482 H       1  UNL1        0.0263
     27 H           8.6610    6.2882    0.0652 H       1  UNL1        0.0230
     28 H          10.0877    5.6649    0.8584 H       1  UNL1        0.0230
     29 H           8.6610    6.0402    1.7948 H       1  UNL1        0.0230
@<TRIPOS>BOND
     1     1     2    1
     2     2     3    1
     3     3     4    1
     4     4     5    1
     5     5     6    1
     6     6     7    1
     7     7     8    1
     8     8     9    1
     9     1    10    1
    10     1    11    1
    11     1    12    1
    12     2    13    1
    13     2    14    1
    14     3    15    1
    15     3    16    1
    16     4    17    1
    17     4    18    1
    18     5    19    1
    19     5    20    1
    20     6    21    1
    21     6    22    1
    22     7    23    1
    23     7    24    1
    24     8    25    1
    25     8    26    1
    26     9    27    1
    27     9    28    1
    28     9    29    1
