@<TRIPOS>MOLECULE
*****
 39 38 0 0 0
SMALL
GASTEIGER

@<TRIPOS>ATOM
      1 C           1.0547    0.0831    0.0105 C.3     1  UNL1       -0.0653
      2 C           2.5747    0.0831    0.0105 C.3     1  UNL1       -0.0559
      3 C           3.0814    0.6774    1.3145 C.3     1  UNL1       -0.0533
      4 C           4.6014    0.6774    1.3145 C.3     1  UNL1       -0.0531
      5 C           5.1080    1.2717    2.6186 C.3     1  UNL1       -0.0531
      6 C           6.6280    1.2717    2.6186 C.3     1  UNL1       -0.0531
      7 C           7.1347    1.8660    3.9226 C.3     1  UNL1       -0.0530
      8 C           8.6547    1.8660    3.9226 C.3     1  UNL1       -0.0516
      9 C           9.1613    2.4603    5.2266 C.3     1  UNL1       -0.0374
     10 C          10.6813    2.4603    5.2266 C.3     1  UNL1        0.0116
     11 N          11.1713    3.0350    6.4878 N.am    1  UNL1       -0.3155
     12 C          12.6166    3.1464    6.7322 C.2     1  UNL1        0.2099
     13 C          13.6043    2.6673    5.6809 C.3     1  UNL1        0.0121
     14 O          13.0402    3.6434    7.8225 O.2     1  UNL1       -0.2761
     15 H           0.6980   -0.3353   -0.9075 H       1  UNL1        0.0230
     16 H           0.6980    1.0872    0.1072 H       1  UNL1        0.0230
     17 H           0.6980   -0.5027    0.8318 H       1  UNL1        0.0230
     18 H           2.9314    0.6689   -0.8108 H       1  UNL1        0.0263
     19 H           2.9314   -0.9211   -0.0862 H       1  UNL1        0.0263
     20 H           2.7247    0.0916    2.1358 H       1  UNL1        0.0265
     21 H           2.7247    1.6815    1.4112 H       1  UNL1        0.0265
     22 H           4.9580    1.2632    0.4932 H       1  UNL1        0.0265
     23 H           4.9580   -0.3268    1.2179 H       1  UNL1        0.0265
     24 H           4.7514    0.6859    3.4399 H       1  UNL1        0.0265
     25 H           4.7513    2.2758    2.7152 H       1  UNL1        0.0265
     26 H           6.9847    1.8575    1.7973 H       1  UNL1        0.0265
     27 H           6.9847    0.2675    2.5219 H       1  UNL1        0.0265
     28 H           6.7780    1.2802    4.7439 H       1  UNL1        0.0265
     29 H           6.7780    2.8701    4.0193 H       1  UNL1        0.0265
     30 H           9.0113    2.4518    3.1013 H       1  UNL1        0.0266
     31 H           9.0113    0.8618    3.8259 H       1  UNL1        0.0266
     32 H           8.8047    1.8745    6.0479 H       1  UNL1        0.0280
     33 H           8.8047    3.4644    5.3233 H       1  UNL1        0.0280
     34 H          11.0380    3.0461    4.4053 H       1  UNL1        0.0462
     35 H          11.0380    1.4561    5.1300 H       1  UNL1        0.0462
     36 H          10.5316    3.3454    7.1687 H       1  UNL1        0.1487
     37 H          13.0693    2.2830    4.8377 H       1  UNL1        0.0322
     38 H          14.2195    1.8958    6.0948 H       1  UNL1        0.0322
     39 H          14.2195    3.4858    5.3702 H       1  UNL1        0.0322
@<TRIPOS>BOND
     1     1     2    1
     2     2     3    1
     3     3     4    1
     4     4     5    1
     5     5     6    1
     6     6     7    1
     7     7     8    1
     8     8     9    1
     9     9    10    1
    10    10    11    1
    11    11    12   am
    12    12    13    1
    13    12    14    2
    14     1    15    1
    15     1    16    1
    16     1    17    1
    17     2    18    1
    18     2    19    1
    19     3    20    1
    20     3    21    1
    21     4    22    1
    22     4    23    1
    23     5    24    1
    24     5    25    1
    25     6    26    1
    26     6    27    1
    27     7    28    1
    28     7    29    1
    29     8    30    1
    30     8    31    1
    31     9    32    1
    32     9    33    1
    33    10    34    1
    34    10    35    1
    35    11    36    1
    36    13    37    1
    37    13    38    1
    38    13    39    1
