@<TRIPOS>MOLECULE
*****
 42 44 0 0 0
SMALL
GASTEIGER

@<TRIPOS>ATOM
      1 O           1.0655   -0.0701    0.0284 O.2     1  UNL1       -0.2753
      2 C           2.3364   -0.0701    0.0284 C.2     1  UNL1        0.2188
      3 C           3.0964    0.8993    0.9189 C.3     1  UNL1        0.0381
      4 C           2.1086    1.7501    1.7005 C.3     1  UNL1       -0.0293
      5 C           2.8686    2.7195    2.5911 C.3     1  UNL1       -0.0034
      6 N           1.9134    3.5423    3.3470 N.3     1  UNL1       -0.3159
      7 C           2.6484    4.4798    4.2083 C.3     1  UNL1       -0.0034
      8 C           3.9702    1.7982    0.0595 C.3     1  UNL1       -0.0293
      9 N           3.0714   -1.0076   -0.8329 N.am    1  UNL1       -0.2976
     10 C           4.5414   -1.0076   -0.8329 C.3     1  UNL1        0.0182
     11 C           5.0480   -2.0629   -1.8024 C.3     1  UNL1        0.0016
     12 C           6.5680   -2.0629   -1.8024 C.3     1  UNL1        0.1172
     13 O           7.8158   -1.5637   -1.3438 O.3     1  UNL1       -0.4872
     14 C           8.1168   -1.6512    0.0411 C.ar    1  UNL1        0.1210
     15 C           7.1634   -2.2338    0.9499 C.ar    1  UNL1       -0.0199
     16 C           7.4687   -2.3225    2.3545 C.ar    1  UNL1       -0.0583
     17 C           6.5153   -2.9051    3.2632 C.ar    1  UNL1       -0.0615
     18 C           6.8206   -2.9939    4.6679 C.ar    1  UNL1       -0.0583
     19 C           9.3755   -1.1574    0.5371 C.ar    1  UNL1       -0.0199
     20 C           2.3364   -1.9451   -1.6942 C.3     1  UNL1        0.0517
     21 H           3.7115    0.3500    1.6006 H       1  UNL1        0.0395
     22 H           1.4935    1.1173    2.3056 H       1  UNL1        0.0285
     23 H           1.4935    2.2994    1.0188 H       1  UNL1        0.0285
     24 H           3.4838    3.3523    1.9861 H       1  UNL1        0.0424
     25 H           3.4838    2.1702    3.2728 H       1  UNL1        0.0424
     26 H           1.3269    2.9390    3.9238 H       1  UNL1        0.1219
     27 H           2.9803    4.2071    5.1883 H       1  UNL1        0.0424
     28 H           2.5993    5.4918    4.5521 H       1  UNL1        0.0424
     29 H           5.0002    1.5309   -0.0528 H       1  UNL1        0.0285
     30 H           3.8653    2.0557   -0.9738 H       1  UNL1        0.0285
     31 H           4.8980   -1.2272    0.1517 H       1  UNL1        0.0466
     32 H           4.8980   -0.0451   -1.1350 H       1  UNL1        0.0466
     33 H           4.6914   -1.8433   -2.7870 H       1  UNL1        0.0317
     34 H           4.6914   -3.0254   -1.5003 H       1  UNL1        0.0317
     35 H           7.5402   -2.3920   -2.1048 H       1  UNL1        0.0749
     36 H           6.2614   -2.5876    0.5945 H       1  UNL1        0.0654
     37 H           8.3706   -1.9687    2.7099 H       1  UNL1        0.0619
     38 H           5.6133   -3.2590    2.9079 H       1  UNL1        0.0618
     39 H           6.6635   -3.2267    5.6610 H       1  UNL1        0.0619
     40 H          10.2575   -0.7077    0.2458 H       1  UNL1        0.0654
     41 H           1.7956   -2.7561   -1.2529 H       1  UNL1        0.0501
     42 H           1.5760   -1.8318   -2.4384 H       1  UNL1        0.0501
@<TRIPOS>BOND
     1     1     2    2
     2     2     3    1
     3     3     4    1
     4     4     5    1
     5     5     6    1
     6     6     7    1
     7     7     8    1
     8     3     8    1
     9     2     9   am
    10     9    10    1
    11    10    11    1
    12    11    12    1
    13    13    14    1
    14    14    15   ar
    15    15    16   ar
    16    16    17   ar
    17    17    18   ar
    18    18    19   ar
    19    14    19   ar
    20    12    20    1
    21     9    20    1
    22    12    13    1
    23     3    21    1
    24     4    22    1
    25     4    23    1
    26     5    24    1
    27     5    25    1
    28     6    26    1
    29     7    27    1
    30     7    28    1
    31     8    29    1
    32     8    30    1
    33    10    31    1
    34    10    32    1
    35    11    33    1
    36    11    34    1
    37    12    35    1
    38    15    36    1
    39    16    37    1
    40    17    38    1
    41    18    39    1
    42    19    40    1
    43    20    41    1
    44    20    42    1
