@<TRIPOS>MOLECULE
*****
 45 46 0 0 0
SMALL
GASTEIGER

@<TRIPOS>ATOM
      1 N           0.9120    0.0371   -0.0298 N.3     1  UNL1       -0.3300
      2 C           2.3820    0.0371   -0.0298 C.3     1  UNL1       -0.0069
      3 C           2.8887    1.0168    1.0162 C.3     1  UNL1       -0.0406
      4 C           4.4087    1.0168    1.0162 C.3     1  UNL1       -0.0508
      5 C           4.9154    1.9964    2.0621 C.3     1  UNL1       -0.0402
      6 C           6.4354    1.9964    2.0621 C.3     1  UNL1       -0.0010
      7 N           6.9254    2.9439    3.0736 N.3     1  UNL1       -0.2994
      8 C           8.3954    2.9439    3.0736 C.3     1  UNL1        0.0147
      9 C           8.9020    3.9235    4.1195 C.3     1  UNL1        0.0250
     10 N          10.3720    3.9235    4.1195 N.pl3   1  UNL1       -0.3275
     11 C          11.1070    3.0533    3.1904 C.ar    1  UNL1        0.0298
     12 C          10.3869    2.2006    2.2801 C.ar    1  UNL1       -0.0400
     13 C          11.1070    1.3480    1.3698 C.ar    1  UNL1       -0.0498
     14 C          10.3869    0.4954    0.4595 C.ar    1  UNL1        0.0143
     15 C           8.8669    0.4954    0.4595 C.2     1  UNL1        0.1502
     16 O           8.2315    1.2478    1.2628 O.2     1  UNL1       -0.2957
     17 C          11.1070   -0.3573   -0.4508 C.ar    1  UNL1       -0.0498
     18 C          12.5472    3.0533    3.1904 C.ar    1  UNL1       -0.0400
     19 C          11.1070    4.7938    5.0486 C.3     1  UNL1        0.0250
     20 C           6.4353    2.5416    4.3999 C.3     1  UNL1        0.0147
     21 H           0.5720   -0.6203   -0.7316 H       1  UNL1        0.1182
     22 H           0.5720    0.9736   -0.2482 H       1  UNL1        0.1182
     23 H           2.7387    0.3299   -0.9951 H       1  UNL1        0.0422
     24 H           2.7387   -0.9453    0.1994 H       1  UNL1        0.0422
     25 H           2.5320    0.7240    1.9815 H       1  UNL1        0.0277
     26 H           2.5320    1.9992    0.7871 H       1  UNL1        0.0277
     27 H           4.7654    1.3096    0.0508 H       1  UNL1        0.0266
     28 H           4.7654    0.0343    1.2453 H       1  UNL1        0.0266
     29 H           4.5587    1.7036    3.0275 H       1  UNL1        0.0278
     30 H           4.5587    2.9789    1.8330 H       1  UNL1        0.0278
     31 H           6.7920    2.2893    1.0967 H       1  UNL1        0.0426
     32 H           6.7920    1.0140    2.2912 H       1  UNL1        0.0426
     33 H           8.7520    3.2367    2.1082 H       1  UNL1        0.0442
     34 H           8.7520    1.9614    3.3027 H       1  UNL1        0.0442
     35 H           8.5453    3.6307    5.0849 H       1  UNL1        0.0476
     36 H           8.5453    4.9060    3.8904 H       1  UNL1        0.0476
     37 H           9.3549    2.2006    2.2801 H       1  UNL1        0.0636
     38 H          12.1390    1.3480    1.3698 H       1  UNL1        0.0625
     39 H           8.3509   -0.1156   -0.1928 H       1  UNL1        0.1081
     40 H          11.2319   -1.0576   -1.1985 H       1  UNL1        0.0625
     41 H          13.3720    3.4773    3.6431 H       1  UNL1        0.0636
     42 H          11.2854    5.8315    4.8578 H       1  UNL1        0.0476
     43 H          11.9578    4.8307    5.6966 H       1  UNL1        0.0476
     44 H           5.5782    3.0495    4.7901 H       1  UNL1        0.0442
     45 H           6.0900    1.5859    4.7349 H       1  UNL1        0.0442
@<TRIPOS>BOND
     1     1     2    1
     2     2     3    1
     3     3     4    1
     4     4     5    1
     5     5     6    1
     6     6     7    1
     7     7     8    1
     8     8     9    1
     9     9    10    1
    10    10    11    1
    11    11    12   ar
    12    12    13   ar
    13    13    14   ar
    14    14    15    1
    15    15    16    2
    16    14    17   ar
    17    17    18   ar
    18    11    18   ar
    19    10    19    1
    20    19    20    1
    21     7    20    1
    22     1    21    1
    23     1    22    1
    24     2    23    1
    25     2    24    1
    26     3    25    1
    27     3    26    1
    28     4    27    1
    29     4    28    1
    30     5    29    1
    31     5    30    1
    32     6    31    1
    33     6    32    1
    34     8    33    1
    35     8    34    1
    36     9    35    1
    37     9    36    1
    38    12    37    1
    39    13    38    1
    40    15    39    1
    41    17    40    1
    42    18    41    1
    43    19    42    1
    44    19    43    1
    45    20    44    1
    46    20    45    1
