@<TRIPOS>MOLECULE
*****
 44 45 0 0 0
SMALL
GASTEIGER

@<TRIPOS>ATOM
      1 C           1.0382   -0.0377   -0.0844 C.3     1  UNL1        0.0372
      2 O           2.4582   -0.0377   -0.0844 O.3     1  UNL1       -0.3752
      3 C           2.9316   -0.1179   -1.4207 C.3     1  UNL1        0.0846
      4 C           2.4249    1.0781   -2.2103 C.3     1  UNL1        0.0275
      5 N           0.9549    1.0780   -2.2103 N.3     1  UNL1       -0.3056
      6 C           0.4649    1.1611   -0.8269 C.3     1  UNL1       -0.0129
      7 C           0.4649    2.2346   -2.9739 C.3     1  UNL1       -0.0129
      8 C           4.4516   -0.1179   -1.4207 C.3     1  UNL1       -0.0066
      9 C           4.9582   -0.2037   -2.8512 C.3     1  UNL1        0.0176
     10 N           6.4282   -0.2037   -2.8512 N.am    1  UNL1       -0.2973
     11 C           7.1632   -0.1275   -1.5805 C.2     1  UNL1        0.2466
     12 O           8.4341   -0.1275   -1.5805 O.2     1  UNL1       -0.2700
     13 C           6.4032   -0.0486   -0.2665 C.ar    1  UNL1        0.0369
     14 C           7.1233    0.0261    0.9785 C.ar    1  UNL1       -0.0496
     15 C           6.4032    0.1008    2.2235 C.ar    1  UNL1       -0.0610
     16 C           7.1233    0.1755    3.4686 C.ar    1  UNL1       -0.0617
     17 C           6.4032    0.2502    4.7136 C.ar    1  UNL1       -0.0610
     18 C           4.9630   -0.0486   -0.2665 C.ar    1  UNL1       -0.0496
     19 C           7.1632   -0.2800   -4.1220 C.3     1  UNL1        0.0176
     20 C           2.4249   -1.3996   -2.0617 C.3     1  UNL1       -0.0066
     21 H           0.6816    0.0227    0.9226 H       1  UNL1        0.0524
     22 H           0.6816   -0.9400   -0.5355 H       1  UNL1        0.0524
     23 H           0.6816    0.8042   -0.6402 H       1  UNL1        0.0524
     24 H           2.7816    1.0176   -3.2173 H       1  UNL1        0.0455
     25 H           2.7816    1.9803   -1.7592 H       1  UNL1        0.0455
     26 H           0.8216    0.3192   -0.2711 H       1  UNL1        0.0391
     27 H          -0.6051    1.1611   -0.8269 H       1  UNL1        0.0391
     28 H           0.8216    2.0633   -0.3757 H       1  UNL1        0.0391
     29 H           0.8216    2.1742   -3.9809 H       1  UNL1        0.0391
     30 H           0.8216    3.1369   -2.5228 H       1  UNL1        0.0391
     31 H          -0.6051    2.2346   -2.9739 H       1  UNL1        0.0391
     32 H           4.8082   -0.9597   -0.8649 H       1  UNL1        0.0309
     33 H           4.8082    0.7844   -0.9696 H       1  UNL1        0.0309
     34 H           4.6016    0.6382   -3.4071 H       1  UNL1        0.0465
     35 H           4.6016   -1.1060   -3.3024 H       1  UNL1        0.0465
     36 H           8.1553    0.0261    0.9785 H       1  UNL1        0.0625
     37 H           5.3712    0.1008    2.2235 H       1  UNL1        0.0618
     38 H           8.1553    0.1755    3.4686 H       1  UNL1        0.0618
     39 H           6.2784    0.3115    5.7361 H       1  UNL1        0.0618
     40 H           4.1383   -0.0858   -0.8857 H       1  UNL1        0.0625
     41 H           7.9017   -1.0277   -4.3231 H       1  UNL1        0.0465
     42 H           7.6537    0.3165   -4.8626 H       1  UNL1        0.0465
     43 H           2.3406   -2.2690   -1.4436 H       1  UNL1        0.0309
     44 H           1.4954   -1.5956   -2.5541 H       1  UNL1        0.0309
@<TRIPOS>BOND
     1     1     2    1
     2     2     3    1
     3     3     4    1
     4     4     5    1
     5     5     6    1
     6     5     7    1
     7     3     8    1
     8     8     9    1
     9     9    10    1
    10    10    11   am
    11    11    12    2
    12    11    13    1
    13    13    14   ar
    14    14    15   ar
    15    15    16   ar
    16    16    17   ar
    17    17    18   ar
    18    13    18   ar
    19    10    19    1
    20    19    20    1
    21     3    20    1
    22     1    21    1
    23     1    22    1
    24     1    23    1
    25     4    24    1
    26     4    25    1
    27     6    26    1
    28     6    27    1
    29     6    28    1
    30     7    29    1
    31     7    30    1
    32     7    31    1
    33     8    32    1
    34     8    33    1
    35     9    34    1
    36     9    35    1
    37    14    36    1
    38    15    37    1
    39    16    38    1
    40    17    39    1
    41    18    40    1
    42    19    41    1
    43    19    42    1
    44    20    43    1
    45    20    44    1
