@<TRIPOS>MOLECULE
*****
 12 11 0 0 0
SMALL
GASTEIGER

@<TRIPOS>ATOM
      1 C           0.9545   -0.0370    0.0810 C.3     1  UNL1       -0.0570
      2 C           2.4745   -0.0370    0.0810 C.3     1  UNL1        0.0209
      3 C           2.9812    0.8068   -1.0773 C.2     1  UNL1        0.2102
      4 N           2.0259    1.4646   -1.9805 N.am    1  UNL1       -0.3293
      5 O           4.2307    0.9435   -1.2651 O.2     1  UNL1       -0.2760
      6 H           0.5978   -0.6310    0.8964 H       1  UNL1        0.0234
      7 H           0.5978   -0.4462   -0.8411 H       1  UNL1        0.0234
      8 H           0.5978    0.9661    0.1877 H       1  UNL1        0.0234
      9 H           2.8312   -1.0402   -0.0257 H       1  UNL1        0.0355
     10 H           2.8312    0.3722    1.0031 H       1  UNL1        0.0355
     11 H           1.0580    1.3587   -1.8350 H       1  UNL1        0.1449
     12 H           2.3541    2.0111   -2.7307 H       1  UNL1        0.1449
@<TRIPOS>BOND
     1     1     2    1
     2     2     3    1
     3     3     4   am
     4     3     5    2
     5     1     6    1
     6     1     7    1
     7     1     8    1
     8     2     9    1
     9     2    10    1
    10     4    11    1
    11     4    12    1
