@<TRIPOS>MOLECULE
*****
 41 41 0 0 0
SMALL
GASTEIGER

@<TRIPOS>ATOM
      1 N           1.0719   -0.0279   -0.0637 N.3     1  UNL1       -0.3283
      2 C           2.5419   -0.0279   -0.0637 C.3     1  UNL1        0.0128
      3 C           3.0486   -1.4492    0.1194 C.3     1  UNL1        0.0554
      4 N           4.5186   -1.4492    0.1194 N.ar    1  UNL1       -0.2502
      5 C           5.2150   -2.6455    0.2736 C.ar    1  UNL1        0.0510
      6 C           6.6552   -2.6455    0.2736 C.ar    1  UNL1        0.1083
      7 C           7.4152   -1.3399    0.1054 C.3     1  UNL1        0.0930
      8 O           6.4924   -0.2695   -0.0325 O.3     1  UNL1       -0.3713
      9 C           7.2024    0.9502   -0.1897 C.3     1  UNL1        0.0715
     10 C           6.2147    2.0960   -0.3373 C.3     1  UNL1        0.0711
     11 O           6.9247    3.3157   -0.4944 O.3     1  UNL1       -0.3752
     12 C           6.0019    4.3862   -0.6323 C.3     1  UNL1        0.0711
     13 C           6.7619    5.6917   -0.8005 C.3     1  UNL1        0.0711
     14 O           5.8391    6.7622   -0.9385 O.3     1  UNL1       -0.3752
     15 C           6.5491    7.9819   -1.0956 C.3     1  UNL1        0.0708
     16 C           5.5614    9.1277   -1.2432 C.3     1  UNL1        0.0676
     17 O           6.2714   10.3474   -1.4003 O.3     1  UNL1       -0.3927
     18 N           7.3516   -3.8418    0.4277 N.ar    1  UNL1       -0.1322
     19 N           5.1913   -0.2935   -0.0294 N.ar    1  UNL1       -0.0653
     20 H           0.7319    0.9259   -0.1866 H       1  UNL1        0.1183
     21 H           0.7319   -0.3983    0.8238 H       1  UNL1        0.1183
     22 H           2.8986    0.5840    0.7384 H       1  UNL1        0.0440
     23 H           2.8986    0.3608   -0.9946 H       1  UNL1        0.0440
     24 H           2.6919   -2.0611   -0.6826 H       1  UNL1        0.0522
     25 H           2.6919   -1.8378    1.0504 H       1  UNL1        0.0522
     26 H           4.6990   -3.5319    0.3878 H       1  UNL1        0.0846
     27 H           8.0303   -1.3954   -0.7684 H       1  UNL1        0.0626
     28 H           8.0303   -1.1721    0.9646 H       1  UNL1        0.0626
     29 H           7.8176    0.8948   -1.0634 H       1  UNL1        0.0583
     30 H           7.8176    1.1180    0.6696 H       1  UNL1        0.0583
     31 H           5.5995    2.1515    0.5364 H       1  UNL1        0.0583
     32 H           5.5995    1.9282   -1.1965 H       1  UNL1        0.0583
     33 H           5.3867    4.4416    0.2414 H       1  UNL1        0.0583
     34 H           5.3867    4.2183   -1.4916 H       1  UNL1        0.0583
     35 H           7.3771    5.6363   -1.6743 H       1  UNL1        0.0583
     36 H           7.3771    5.8596    0.0587 H       1  UNL1        0.0583
     37 H           7.1643    7.9265   -1.9693 H       1  UNL1        0.0583
     38 H           7.1643    8.1497   -0.2363 H       1  UNL1        0.0583
     39 H           4.9462    9.1831   -0.3695 H       1  UNL1        0.0580
     40 H           4.9462    8.9599   -2.1025 H       1  UNL1        0.0580
     41 H           6.8291   10.4996   -0.6214 H       1  UNL1        0.2095
@<TRIPOS>BOND
     1     1     2    1
     2     2     3    1
     3     3     4    1
     4     4     5   ar
     5     5     6   ar
     6     6     7    1
     7     7     8    1
     8     8     9    1
     9     9    10    1
    10    10    11    1
    11    11    12    1
    12    12    13    1
    13    13    14    1
    14    14    15    1
    15    15    16    1
    16    16    17    1
    17     6    18   ar
    18    18    19   ar
    19     4    19   ar
    20     1    20    1
    21     1    21    1
    22     2    22    1
    23     2    23    1
    24     3    24    1
    25     3    25    1
    26     5    26    1
    27     7    27    1
    28     7    28    1
    29     9    29    1
    30     9    30    1
    31    10    31    1
    32    10    32    1
    33    12    33    1
    34    12    34    1
    35    13    35    1
    36    13    36    1
    37    15    37    1
    38    15    38    1
    39    16    39    1
    40    16    40    1
    41    17    41    1
