@<TRIPOS>MOLECULE
*****
 42 42 0 0 0
SMALL
GASTEIGER

@<TRIPOS>ATOM
      1 C           0.9099   -0.0176    0.0397 C.3     1  UNL1       -0.0636
      2 C           2.4299   -0.0176    0.0397 C.3     1  UNL1       -0.0362
      3 C           2.9366    0.9209    1.1228 C.3     1  UNL1        0.0429
      4 N           4.4066    0.9209    1.1228 N.ar    1  UNL1       -0.2514
      5 C           5.1030    1.7107    2.0344 C.ar    1  UNL1        0.0509
      6 C           6.5432    1.7107    2.0344 C.ar    1  UNL1        0.1083
      7 C           7.3032    0.8487    1.0396 C.3     1  UNL1        0.0930
      8 O           6.3804    0.1420    0.2238 O.3     1  UNL1       -0.3713
      9 C           7.0904   -0.6633   -0.7056 C.3     1  UNL1        0.0715
     10 C           6.1027   -1.4198   -1.5788 C.3     1  UNL1        0.0711
     11 O           6.8127   -2.2251   -2.5082 O.3     1  UNL1       -0.3752
     12 C           5.8899   -2.9319   -3.3239 C.3     1  UNL1        0.0711
     13 C           6.6499   -3.7939   -4.3188 C.3     1  UNL1        0.0711
     14 O           5.7272   -4.5006   -5.1345 O.3     1  UNL1       -0.3752
     15 C           6.4372   -5.3059   -6.0639 C.3     1  UNL1        0.0708
     16 C           5.4494   -6.0624   -6.9371 C.3     1  UNL1        0.0676
     17 O           6.1594   -6.8677   -7.8665 O.3     1  UNL1       -0.3927
     18 N           7.2396    2.5006    2.9461 N.ar    1  UNL1       -0.1322
     19 N           5.0793    0.1579    0.2422 N.ar    1  UNL1       -0.0654
     20 H           0.5533   -0.6781   -0.7227 H       1  UNL1        0.0230
     21 H           0.5532    0.9730   -0.1512 H       1  UNL1        0.0230
     22 H           0.5532   -0.3475    0.9930 H       1  UNL1        0.0230
     23 H           2.7866    0.3124   -0.9136 H       1  UNL1        0.0280
     24 H           2.7866   -1.0081    0.2306 H       1  UNL1        0.0280
     25 H           2.5799    0.5909    2.0761 H       1  UNL1        0.0509
     26 H           2.5799    1.9114    0.9319 H       1  UNL1        0.0509
     27 H           4.5870    2.2960    2.7099 H       1  UNL1        0.0846
     28 H           7.9183    0.1513    1.5688 H       1  UNL1        0.0626
     29 H           7.9184    1.4719    0.4246 H       1  UNL1        0.0626
     30 H           7.7056   -1.3607   -0.1763 H       1  UNL1        0.0583
     31 H           7.7056   -0.0401   -1.3205 H       1  UNL1        0.0583
     32 H           5.4875   -0.7224   -2.1080 H       1  UNL1        0.0583
     33 H           5.4875   -2.0430   -0.9638 H       1  UNL1        0.0583
     34 H           5.2748   -2.2345   -3.8532 H       1  UNL1        0.0583
     35 H           5.2748   -3.5550   -2.7090 H       1  UNL1        0.0583
     36 H           7.2651   -4.4913   -3.7895 H       1  UNL1        0.0583
     37 H           7.2651   -3.1707   -4.9337 H       1  UNL1        0.0583
     38 H           7.0523   -6.0033   -5.5347 H       1  UNL1        0.0583
     39 H           7.0523   -4.6827   -6.6788 H       1  UNL1        0.0583
     40 H           4.8343   -5.3650   -7.4663 H       1  UNL1        0.0580
     41 H           4.8342   -6.6856   -6.3222 H       1  UNL1        0.0580
     42 H           6.7171   -6.3028   -8.4240 H       1  UNL1        0.2095
@<TRIPOS>BOND
     1     1     2    1
     2     2     3    1
     3     3     4    1
     4     4     5   ar
     5     5     6   ar
     6     6     7    1
     7     7     8    1
     8     8     9    1
     9     9    10    1
    10    10    11    1
    11    11    12    1
    12    12    13    1
    13    13    14    1
    14    14    15    1
    15    15    16    1
    16    16    17    1
    17     6    18   ar
    18    18    19   ar
    19     4    19   ar
    20     1    20    1
    21     1    21    1
    22     1    22    1
    23     2    23    1
    24     2    24    1
    25     3    25    1
    26     3    26    1
    27     5    27    1
    28     7    28    1
    29     7    29    1
    30     9    30    1
    31     9    31    1
    32    10    32    1
    33    10    33    1
    34    12    34    1
    35    12    35    1
    36    13    36    1
    37    13    37    1
    38    15    38    1
    39    15    39    1
    40    16    40    1
    41    16    41    1
    42    17    42    1
