@<TRIPOS>MOLECULE
*****
 38 37 0 0 0
SMALL
GASTEIGER

@<TRIPOS>ATOM
      1 C           0.9675    0.0437   -0.0839 C.3     1  UNL1       -0.0653
      2 C           2.4875    0.0437   -0.0839 C.3     1  UNL1       -0.0559
      3 C           2.9942    1.4562    0.1583 C.3     1  UNL1       -0.0533
      4 C           4.5142    1.4562    0.1583 C.3     1  UNL1       -0.0531
      5 C           5.0209    2.8686    0.4006 C.3     1  UNL1       -0.0531
      6 C           6.5409    2.8686    0.4006 C.3     1  UNL1       -0.0530
      7 C           7.0475    4.2811    0.6428 C.3     1  UNL1       -0.0516
      8 C           8.5675    4.2811    0.6428 C.3     1  UNL1       -0.0374
      9 C           9.0742    5.6935    0.8850 C.3     1  UNL1        0.0116
     10 N          10.5442    5.6935    0.8850 N.am    1  UNL1       -0.3143
     11 C          11.2792    6.9483    1.1002 C.2     1  UNL1        0.2267
     12 O          10.6437    8.0331    1.2862 O.2     1  UNL1       -0.2744
     13 C          12.7992    6.9483    1.1002 C.3     1  UNL1        0.0707
     14 N          13.2892    8.3143    1.3344 N.3     1  UNL1       -0.3225
     15 H           0.6109   -0.9506   -0.2544 H       1  UNL1        0.0230
     16 H           0.6109    0.6885   -0.8597 H       1  UNL1        0.0230
     17 H           0.6109    0.3932    0.8625 H       1  UNL1        0.0230
     18 H           2.8442   -0.3058   -1.0302 H       1  UNL1        0.0263
     19 H           2.8442   -0.6011    0.6920 H       1  UNL1        0.0263
     20 H           2.6375    1.8057    1.1047 H       1  UNL1        0.0265
     21 H           2.6375    2.1010   -0.6175 H       1  UNL1        0.0265
     22 H           4.8709    1.1067   -0.7880 H       1  UNL1        0.0265
     23 H           4.8709    0.8114    0.9342 H       1  UNL1        0.0265
     24 H           4.6642    3.2181    1.3469 H       1  UNL1        0.0265
     25 H           4.6642    3.5134   -0.3753 H       1  UNL1        0.0265
     26 H           6.8975    2.5191   -0.5458 H       1  UNL1        0.0265
     27 H           6.8975    2.2238    1.1764 H       1  UNL1        0.0265
     28 H           6.6908    4.6306    1.5891 H       1  UNL1        0.0266
     29 H           6.6908    4.9259   -0.1331 H       1  UNL1        0.0266
     30 H           8.9242    3.9316   -0.3036 H       1  UNL1        0.0280
     31 H           8.9242    3.6363    1.4186 H       1  UNL1        0.0280
     32 H           8.7175    6.0430    1.8313 H       1  UNL1        0.0462
     33 H           8.7175    6.3383    0.1092 H       1  UNL1        0.0462
     34 H          11.0364    4.8532    0.7409 H       1  UNL1        0.1487
     35 H          13.1558    6.5988    0.1538 H       1  UNL1        0.0518
     36 H          13.1558    6.3035    1.8760 H       1  UNL1        0.0518
     37 H          12.9492    8.9289    0.5948 H       1  UNL1        0.1186
     38 H          14.3092    8.3143    1.3344 H       1  UNL1        0.1186
@<TRIPOS>BOND
     1     1     2    1
     2     2     3    1
     3     3     4    1
     4     4     5    1
     5     5     6    1
     6     6     7    1
     7     7     8    1
     8     8     9    1
     9     9    10    1
    10    10    11   am
    11    11    12    2
    12    11    13    1
    13    13    14    1
    14     1    15    1
    15     1    16    1
    16     1    17    1
    17     2    18    1
    18     2    19    1
    19     3    20    1
    20     3    21    1
    21     4    22    1
    22     4    23    1
    23     5    24    1
    24     5    25    1
    25     6    26    1
    26     6    27    1
    27     7    28    1
    28     7    29    1
    29     8    30    1
    30     8    31    1
    31     9    32    1
    32     9    33    1
    33    10    34    1
    34    13    35    1
    35    13    36    1
    36    14    37    1
    37    14    38    1
