@<TRIPOS>MOLECULE
*****
 27 26 0 0 0
SMALL
GASTEIGER

@<TRIPOS>ATOM
      1 C           1.0047   -0.0209   -0.0977 C.3     1  UNL1       -0.0653
      2 C           2.5247   -0.0209   -0.0977 C.3     1  UNL1       -0.0559
      3 C           3.0314   -1.4511   -0.1894 C.3     1  UNL1       -0.0533
      4 C           4.5514   -1.4511   -0.1894 C.3     1  UNL1       -0.0530
      5 C           5.0580   -2.8812   -0.2810 C.3     1  UNL1       -0.0510
      6 C           6.5780   -2.8812   -0.2810 C.3     1  UNL1       -0.0295
      7 C           7.0847   -4.3113   -0.3727 C.3     1  UNL1        0.0473
      8 O           8.5047   -4.3113   -0.3727 O.3     1  UNL1       -0.3830
      9 C           8.9780   -5.6474   -0.4584 C.3     1  UNL1        0.0364
     10 H           0.6480    0.9858   -0.0331 H       1  UNL1        0.0230
     11 H           0.6480   -0.5802    0.7419 H       1  UNL1        0.0230
     12 H           0.6480   -0.4684   -1.0018 H       1  UNL1        0.0230
     13 H           2.8814    0.4266    0.8065 H       1  UNL1        0.0263
     14 H           2.8814    0.5383   -0.9373 H       1  UNL1        0.0263
     15 H           2.6747   -1.8985   -1.0935 H       1  UNL1        0.0265
     16 H           2.6747   -2.0103    0.6502 H       1  UNL1        0.0265
     17 H           4.9080   -1.0036    0.7148 H       1  UNL1        0.0265
     18 H           4.9080   -0.8918   -1.0289 H       1  UNL1        0.0265
     19 H           4.7014   -3.3287   -1.1852 H       1  UNL1        0.0266
     20 H           4.7014   -3.4405    0.5585 H       1  UNL1        0.0266
     21 H           6.9347   -2.4337    0.6231 H       1  UNL1        0.0287
     22 H           6.9347   -2.3219   -1.1206 H       1  UNL1        0.0287
     23 H           6.7280   -4.7588   -1.2769 H       1  UNL1        0.0560
     24 H           6.7280   -4.8706    0.4669 H       1  UNL1        0.0560
     25 H          10.0480   -5.6474   -0.4584 H       1  UNL1        0.0523
     26 H           8.6213   -6.0949   -1.3625 H       1  UNL1        0.0523
     27 H           8.6213   -6.2066    0.3812 H       1  UNL1        0.0523
@<TRIPOS>BOND
     1     1     2    1
     2     2     3    1
     3     3     4    1
     4     4     5    1
     5     5     6    1
     6     6     7    1
     7     7     8    1
     8     8     9    1
     9     1    10    1
    10     1    11    1
    11     1    12    1
    12     2    13    1
    13     2    14    1
    14     3    15    1
    15     3    16    1
    16     4    17    1
    17     4    18    1
    18     5    19    1
    19     5    20    1
    20     6    21    1
    21     6    22    1
    22     7    23    1
    23     7    24    1
    24     9    25    1
    25     9    26    1
    26     9    27    1
