@<TRIPOS>MOLECULE
*****
 27 26 0 0 0
SMALL
GASTEIGER

@<TRIPOS>ATOM
      1 C           1.0524    0.0707    0.0474 C.3     1  UNL1       -0.0653
      2 C           2.5724    0.0707    0.0474 C.3     1  UNL1       -0.0559
      3 C           3.0791    0.7480    1.3104 C.3     1  UNL1       -0.0533
      4 C           4.5991    0.7480    1.3104 C.3     1  UNL1       -0.0517
      5 C           5.1057    1.4253    2.5733 C.3     1  UNL1       -0.0374
      6 C           6.6257    1.4253    2.5733 C.3     1  UNL1        0.0116
      7 N           7.1157    2.0802    3.7947 N.am    1  UNL1       -0.3155
      8 C           8.5610    2.2072    4.0314 C.2     1  UNL1        0.2099
      9 C           9.5487    1.6612    3.0133 C.3     1  UNL1        0.0121
     10 O           8.9846    2.7735    5.0874 O.2     1  UNL1       -0.2761
     11 H           0.6958   -0.4060   -0.8416 H       1  UNL1        0.0230
     12 H           0.6958    1.0790    0.0791 H       1  UNL1        0.0230
     13 H           0.6958   -0.4608    0.9048 H       1  UNL1        0.0230
     14 H           2.9291    0.6023   -0.8100 H       1  UNL1        0.0263
     15 H           2.9291   -0.9376    0.0158 H       1  UNL1        0.0263
     16 H           2.7224    0.2164    2.1678 H       1  UNL1        0.0265
     17 H           2.7224    1.7563    1.3420 H       1  UNL1        0.0265
     18 H           4.9558    1.2795    0.4530 H       1  UNL1        0.0266
     19 H           4.9558   -0.2603    1.2787 H       1  UNL1        0.0266
     20 H           4.7491    0.8937    3.4307 H       1  UNL1        0.0280
     21 H           4.7491    2.4336    2.6049 H       1  UNL1        0.0280
     22 H           6.9824    1.9568    1.7159 H       1  UNL1        0.0462
     23 H           6.9824    0.4169    2.5417 H       1  UNL1        0.0462
     24 H           6.4760    2.4339    4.4542 H       1  UNL1        0.1487
     25 H           9.0137    1.2233    2.1966 H       1  UNL1        0.0322
     26 H          10.1639    0.9180    3.4761 H       1  UNL1        0.0322
     27 H          10.1639    2.4579    2.6503 H       1  UNL1        0.0322
@<TRIPOS>BOND
     1     1     2    1
     2     2     3    1
     3     3     4    1
     4     4     5    1
     5     5     6    1
     6     6     7    1
     7     7     8   am
     8     8     9    1
     9     8    10    2
    10     1    11    1
    11     1    12    1
    12     1    13    1
    13     2    14    1
    14     2    15    1
    15     3    16    1
    16     3    17    1
    17     4    18    1
    18     4    19    1
    19     5    20    1
    20     5    21    1
    21     6    22    1
    22     6    23    1
    23     7    24    1
    24     9    25    1
    25     9    26    1
    26     9    27    1
