@<TRIPOS>MOLECULE
*****
 23 22 0 0 0
SMALL
GASTEIGER

@<TRIPOS>ATOM
      1 C           0.9206   -0.0600    0.0100 C.3     1  UNL1        0.0121
      2 C           2.4406   -0.0600    0.0100 C.2     1  UNL1        0.2100
      3 O           3.0761    0.6440    0.8560 O.2     1  UNL1       -0.2761
      4 N           3.1756   -0.8744   -0.9685 N.am    1  UNL1       -0.3140
      5 C           4.6456   -0.8744   -0.9685 C.3     1  UNL1        0.0271
      6 C           5.1523   -1.7911   -2.0700 C.3     1  UNL1        0.0272
      7 N           6.6223   -1.7911   -2.0700 N.am    1  UNL1       -0.3119
      8 C           7.3573   -2.6055   -3.0485 C.2     1  UNL1        0.2386
      9 O           6.7219   -3.3096   -3.8945 O.2     1  UNL1       -0.2733
     10 C           8.8773   -2.6055   -3.0485 C.3     1  UNL1        0.1202
     11 O           9.3506   -3.4619   -4.0775 O.3     1  UNL1       -0.3858
     12 H           0.5640    0.5853    0.7854 H       1  UNL1        0.0322
     13 H           0.5640   -1.0542    0.1812 H       1  UNL1        0.0322
     14 H           0.5640    0.2888   -0.9366 H       1  UNL1        0.0322
     15 H           2.6834   -1.4198   -1.6238 H       1  UNL1        0.1487
     16 H           5.0023   -1.2232   -0.0219 H       1  UNL1        0.0477
     17 H           5.0023    0.1198   -1.1397 H       1  UNL1        0.0477
     18 H           4.7956   -1.4423   -3.0166 H       1  UNL1        0.0477
     19 H           4.7956   -2.7853   -1.8988 H       1  UNL1        0.0477
     20 H           7.1146   -1.2457   -1.4147 H       1  UNL1        0.1488
     21 H           9.2340   -2.9544   -2.1019 H       1  UNL1        0.0654
     22 H           9.2340   -1.6113   -3.2197 H       1  UNL1        0.0654
     23 H           9.0273   -4.3632   -3.9223 H       1  UNL1        0.2100
@<TRIPOS>BOND
     1     1     2    1
     2     2     3    2
     3     2     4   am
     4     4     5    1
     5     5     6    1
     6     6     7    1
     7     7     8   am
     8     8     9    2
     9     8    10    1
    10    10    11    1
    11     1    12    1
    12     1    13    1
    13     1    14    1
    14     4    15    1
    15     5    16    1
    16     5    17    1
    17     6    18    1
    18     6    19    1
    19     7    20    1
    20    10    21    1
    21    10    22    1
    22    11    23    1
