@<TRIPOS>MOLECULE
*****
 70 72 0 0 0
SMALL
GASTEIGER

@<TRIPOS>ATOM
      1 C           0.9482    0.0776    0.0361 C.3     1  UNL1       -0.0652
      2 C           2.4682    0.0776    0.0361 C.3     1  UNL1       -0.0545
      3 C           2.9749   -0.3296    1.4101 C.3     1  UNL1       -0.0373
      4 C           4.4949   -0.3296    1.4101 C.3     1  UNL1        0.0165
      5 N           4.9849   -0.7234    2.7389 N.am    1  UNL1       -0.2811
      6 C           4.0296   -1.0409    3.8101 C.3     1  UNL1        0.0412
      7 C           2.6111   -0.8857    3.2865 C.ar    1  UNL1       -0.0301
      8 C           1.4910   -1.1429    4.1544 C.ar    1  UNL1       -0.0571
      9 C           0.1469   -0.9959    3.6582 C.ar    1  UNL1       -0.0615
     10 C          -0.9732   -1.2531    4.5261 C.ar    1  UNL1       -0.0617
     11 C          -2.3172   -1.1061    4.0300 C.ar    1  UNL1       -0.0615
     12 C           2.3873   -0.4815    1.9224 C.ar    1  UNL1       -0.0571
     13 C           6.4301   -0.7998    2.9964 C.2     1  UNL1        0.3067
     14 O           7.2560   -0.5253    2.0702 O.2     1  UNL1       -0.2523
     15 N           6.9201   -1.1936    4.3252 N.am    1  UNL1       -0.2693
     16 C           8.3654   -1.2699    4.5828 C.ar    1  UNL1        0.0350
     17 C           8.8454   -1.6557    5.8846 C.ar    1  UNL1       -0.0370
     18 C          10.2614   -1.7305    6.1370 C.ar    1  UNL1       -0.0182
     19 C          10.7414   -2.1163    7.4388 C.ar    1  UNL1        0.1206
     20 O           9.8187   -2.4230    8.4736 O.3     1  UNL1       -0.4919
     21 C           8.4226   -2.3493    8.2249 C.3     1  UNL1        0.0913
     22 C           7.6626   -2.7233    9.4870 C.3     1  UNL1        0.0010
     23 C           6.1682   -2.6444    9.2207 C.3     1  UNL1        0.0463
     24 N           5.4332   -3.0061   10.4412 N.ar    1  UNL1       -0.2513
     25 C           4.0404   -3.0061   10.4412 C.ar    1  UNL1        0.0486
     26 C           3.3203   -3.3605   11.6371 C.ar    1  UNL1        0.0829
     27 C           4.0803   -3.7346   12.8992 C.3     1  UNL1       -0.0060
     28 C           5.5747   -3.6556   12.6329 C.3     1  UNL1       -0.0351
     29 C           6.3347   -4.0297   13.8950 C.3     1  UNL1       -0.0066
     30 N           7.7799   -3.9534   13.6374 N.3     1  UNL1       -0.3300
     31 N           1.9274   -3.3605   11.6371 N.ar    1  UNL1       -0.1345
     32 N           6.1059   -3.3372   11.5584 N.ar    1  UNL1       -0.0655
     33 C          12.1574   -2.1911    7.6911 C.ar    1  UNL1       -0.0182
     34 C           9.3013   -0.9589    3.5332 C.ar    1  UNL1       -0.0370
     35 H           0.5916    0.3642   -0.9312 H       1  UNL1        0.0230
     36 H           0.5915    0.7719    0.7679 H       1  UNL1        0.0230
     37 H           0.5915   -0.9034    0.2714 H       1  UNL1        0.0230
     38 H           2.8249    1.0585   -0.1993 H       1  UNL1        0.0263
     39 H           2.8249   -0.6167   -0.6958 H       1  UNL1        0.0263
     40 H           2.6182   -1.3106    1.6454 H       1  UNL1        0.0280
     41 H           2.6182    0.3647    2.1419 H       1  UNL1        0.0280
     42 H           4.8515    0.6513    1.1747 H       1  UNL1        0.0465
     43 H           4.8515   -1.0239    0.6782 H       1  UNL1        0.0465
     44 H           4.1812   -0.3734    4.6326 H       1  UNL1        0.0514
     45 H           4.1812   -2.0487    4.1361 H       1  UNL1        0.0514
     46 H           1.6514   -1.4326    5.1318 H       1  UNL1        0.0621
     47 H          -0.0135   -0.7062    2.6808 H       1  UNL1        0.0618
     48 H          -0.8128   -1.5428    5.5036 H       1  UNL1        0.0618
     49 H          -3.3486   -1.1163    4.0644 H       1  UNL1        0.0618
     50 H           2.8719   -0.2226    1.0488 H       1  UNL1        0.0621
     51 H           6.2804   -1.4062    5.0427 H       1  UNL1        0.1564
     52 H           8.1748   -1.8786    6.6367 H       1  UNL1        0.0637
     53 H          10.9320   -1.5076    5.3849 H       1  UNL1        0.0655
     54 H           8.1641   -3.0275    7.4387 H       1  UNL1        0.0697
     55 H           8.1641   -1.3522    7.9351 H       1  UNL1        0.0697
     56 H           7.9211   -2.0451   10.2732 H       1  UNL1        0.0316
     57 H           7.9211   -3.7204    9.7767 H       1  UNL1        0.0316
     58 H           5.9097   -3.3226    8.4344 H       1  UNL1        0.0510
     59 H           5.9097   -1.6473    8.9309 H       1  UNL1        0.0510
     60 H           3.5244   -2.7522    9.5843 H       1  UNL1        0.0845
     61 H           3.8218   -4.7316   13.1889 H       1  UNL1        0.0330
     62 H           3.8218   -3.0564   13.6854 H       1  UNL1        0.0330
     63 H           5.8332   -2.6586   12.3432 H       1  UNL1        0.0281
     64 H           5.8332   -4.3339   11.8467 H       1  UNL1        0.0281
     65 H           6.0762   -5.0268   14.1847 H       1  UNL1        0.0422
     66 H           6.0762   -3.3515   14.6812 H       1  UNL1        0.0422
     67 H           8.0263   -4.5999   12.8880 H       1  UNL1        0.1182
     68 H           8.2899   -4.2044   14.4844 H       1  UNL1        0.1182
     69 H          13.0172   -2.3533    8.2384 H       1  UNL1        0.0655
     70 H           9.3657   -0.6662    2.5457 H       1  UNL1        0.0637
@<TRIPOS>BOND
     1     1     2    1
     2     2     3    1
     3     3     4    1
     4     4     5    1
     5     5     6    1
     6     6     7    1
     7     7     8   ar
     8     8     9   ar
     9     9    10   ar
    10    10    11   ar
    11    11    12   ar
    12     7    12   ar
    13     5    13   am
    14    13    14    2
    15    13    15   am
    16    15    16    1
    17    16    17   ar
    18    17    18   ar
    19    18    19   ar
    20    19    20    1
    21    20    21    1
    22    21    22    1
    23    22    23    1
    24    23    24    1
    25    24    25   ar
    26    25    26   ar
    27    26    27    1
    28    27    28    1
    29    28    29    1
    30    29    30    1
    31    26    31   ar
    32    31    32   ar
    33    24    32   ar
    34    19    33   ar
    35    33    34   ar
    36    16    34   ar
    37     1    35    1
    38     1    36    1
    39     1    37    1
    40     2    38    1
    41     2    39    1
    42     3    40    1
    43     3    41    1
    44     4    42    1
    45     4    43    1
    46     6    44    1
    47     6    45    1
    48     8    46    1
    49     9    47    1
    50    10    48    1
    51    11    49    1
    52    12    50    1
    53    15    51    1
    54    17    52    1
    55    18    53    1
    56    21    54    1
    57    21    55    1
    58    22    56    1
    59    22    57    1
    60    23    58    1
    61    23    59    1
    62    25    60    1
    63    27    61    1
    64    27    62    1
    65    28    63    1
    66    28    64    1
    67    29    65    1
    68    29    66    1
    69    30    67    1
    70    30    68    1
    71    33    69    1
    72    34    70    1
