@<TRIPOS>MOLECULE
*****
 19 19 0 0 0
SMALL
GASTEIGER

@<TRIPOS>ATOM
      1 C           0.9405    0.0765    0.0247 C.3     1  UNL1       -0.0127
      2 N           2.4105    0.0765    0.0247 N.3     1  UNL1       -0.3029
      3 C           2.9005   -0.5187    1.2763 C.3     1  UNL1        0.0112
      4 C           4.4205   -0.5187    1.2763 C.3     1  UNL1        0.0087
      5 N           4.9105   -1.1139    2.5279 N.3     1  UNL1       -0.3136
      6 C           6.3805   -1.1139    2.5279 C.3     1  UNL1        0.0087
      7 C           2.9005    1.4580   -0.0857 C.3     1  UNL1        0.0112
      8 H           0.5838   -0.9291    0.1050 H       1  UNL1        0.0391
      9 H           0.5838    0.5097   -0.8864 H       1  UNL1        0.0391
     10 H           0.5838    0.6489    0.8554 H       1  UNL1        0.0391
     11 H           2.5438   -1.5243    1.3566 H       1  UNL1        0.0439
     12 H           2.5438    0.0537    2.1070 H       1  UNL1        0.0439
     13 H           4.7772    0.4869    1.1960 H       1  UNL1        0.0437
     14 H           4.7772   -1.0911    0.4456 H       1  UNL1        0.0437
     15 H           4.5705   -2.0725    2.6045 H       1  UNL1        0.1220
     16 H           6.9481   -1.9076    2.0889 H       1  UNL1        0.0437
     17 H           7.2056   -0.9478    3.1886 H       1  UNL1        0.0437
     18 H           3.1722    1.8114   -1.0585 H       1  UNL1        0.0439
     19 H           2.4040    2.3699    0.1728 H       1  UNL1        0.0439
@<TRIPOS>BOND
     1     1     2    1
     2     2     3    1
     3     3     4    1
     4     4     5    1
     5     5     6    1
     6     6     7    1
     7     2     7    1
     8     1     8    1
     9     1     9    1
    10     1    10    1
    11     3    11    1
    12     3    12    1
    13     4    13    1
    14     4    14    1
    15     5    15    1
    16     6    16    1
    17     6    17    1
    18     7    18    1
    19     7    19    1
