@<TRIPOS>MOLECULE
*****
 33 32 0 0 0
SMALL
GASTEIGER

@<TRIPOS>ATOM
      1 C           1.0375   -0.0043    0.0926 C.3     1  UNL1       -0.0416
      2 C           2.5575   -0.0043    0.0926 C.3     1  UNL1        0.0449
      3 O           3.0309    1.0287   -0.7591 O.3     1  UNL1       -0.3778
      4 C           4.4509    1.0287   -0.7591 C.3     1  UNL1        0.0710
      5 C           4.9575    2.1344   -1.6708 C.3     1  UNL1        0.0711
      6 O           6.3775    2.1344   -1.6708 O.3     1  UNL1       -0.3752
      7 C           6.8508    3.1673   -2.5224 C.3     1  UNL1        0.0711
      8 C           8.3708    3.1673   -2.5224 C.3     1  UNL1        0.0711
      9 O           8.8442    4.2003   -3.3741 O.3     1  UNL1       -0.3760
     10 C          10.2642    4.2003   -3.3741 C.3     1  UNL1        0.0632
     11 C          10.7708    5.3060   -4.2858 C.3     1  UNL1        0.0348
     12 N          12.2408    5.3060   -4.2858 N.am    1  UNL1       -0.3157
     13 C          12.9758    6.2882   -5.0957 C.2     1  UNL1        0.2000
     14 O          14.2467    6.2882   -5.0957 O.2     1  UNL1       -0.2795
     15 H           0.6809   -0.7826    0.7344 H       1  UNL1        0.0252
     16 H           0.6809   -0.1709   -0.9024 H       1  UNL1        0.0252
     17 H           0.6809    0.9407    0.4458 H       1  UNL1        0.0252
     18 H           2.9142   -0.9492   -0.2606 H       1  UNL1        0.0557
     19 H           2.9142    0.1623    1.0875 H       1  UNL1        0.0557
     20 H           4.8075    0.0837   -1.1123 H       1  UNL1        0.0583
     21 H           4.8075    1.1953    0.2359 H       1  UNL1        0.0583
     22 H           4.6009    3.0793   -1.3176 H       1  UNL1        0.0583
     23 H           4.6009    1.9678   -2.6657 H       1  UNL1        0.0583
     24 H           6.4942    4.1123   -2.1693 H       1  UNL1        0.0583
     25 H           6.4942    3.0007   -3.5174 H       1  UNL1        0.0583
     26 H           8.7275    2.2224   -2.8756 H       1  UNL1        0.0583
     27 H           8.7275    3.3339   -1.5275 H       1  UNL1        0.0583
     28 H          10.6208    3.2553   -3.7273 H       1  UNL1        0.0575
     29 H          10.6208    4.3669   -2.3792 H       1  UNL1        0.0575
     30 H          10.4142    6.2509   -3.9326 H       1  UNL1        0.0484
     31 H          10.4142    5.1394   -5.2808 H       1  UNL1        0.0484
     32 H          12.7331    4.6481   -3.7434 H       1  UNL1        0.1485
     33 H          12.4598    6.9778   -5.6642 H       1  UNL1        0.1251
@<TRIPOS>BOND
     1     1     2    1
     2     2     3    1
     3     3     4    1
     4     4     5    1
     5     5     6    1
     6     6     7    1
     7     7     8    1
     8     8     9    1
     9     9    10    1
    10    10    11    1
    11    11    12    1
    12    12    13   am
    13    13    14    2
    14     1    15    1
    15     1    16    1
    16     1    17    1
    17     2    18    1
    18     2    19    1
    19     4    20    1
    20     4    21    1
    21     5    22    1
    22     5    23    1
    23     7    24    1
    24     7    25    1
    25     8    26    1
    26     8    27    1
    27    10    28    1
    28    10    29    1
    29    11    30    1
    30    11    31    1
    31    12    32    1
    32    13    33    1
