@<TRIPOS>MOLECULE
*****
 45 45 0 0 0
SMALL
GASTEIGER

@<TRIPOS>ATOM
      1 O           0.9706    0.0837    0.0461 O.2     1  UNL1       -0.2758
      2 C           2.2415    0.0837    0.0461 C.2     1  UNL1        0.2130
      3 C           3.0015    0.3996    1.3240 C.3     1  UNL1        0.0240
      4 C           2.0138    0.6769    2.4456 C.3     1  UNL1       -0.0444
      5 C           2.7738    0.9928    3.7235 C.3     1  UNL1       -0.0443
      6 C           1.7860    1.2700    4.8450 C.3     1  UNL1        0.0243
      7 C           2.5460    1.5859    6.1229 C.2     1  UNL1        0.2172
      8 O           3.8169    1.5859    6.1229 O.2     1  UNL1       -0.2755
      9 N           1.8110    1.8914    7.3588 N.am    1  UNL1       -0.2855
     10 C           2.5460    2.1969    8.5946 C.ar    1  UNL1        0.0334
     11 C           1.8259    2.4962    9.8054 C.ar    1  UNL1       -0.0405
     12 C           2.5460    2.7955   11.0162 C.ar    1  UNL1       -0.0600
     13 C           1.8259    3.0948   12.2271 C.ar    1  UNL1       -0.0616
     14 C           2.5460    3.3942   13.4379 C.ar    1  UNL1       -0.0600
     15 C           3.9862    2.1969    8.5946 C.ar    1  UNL1       -0.0405
     16 N           2.9765   -0.2218   -1.1897 N.am    1  UNL1       -0.3153
     17 C           4.4465   -0.2218   -1.1897 C.3     1  UNL1        0.0117
     18 C           4.9532   -0.5657   -2.5809 C.3     1  UNL1       -0.0353
     19 C           6.4732   -0.5657   -2.5809 C.3     1  UNL1       -0.0283
     20 C           6.9799   -0.9096   -3.9721 C.3     1  UNL1        0.0443
     21 O           8.3999   -0.9096   -3.9721 O.3     1  UNL1       -0.3950
     22 H           3.6167    1.2613    1.1694 H       1  UNL1        0.0358
     23 H           3.6167   -0.4349    1.5887 H       1  UNL1        0.0358
     24 H           1.3986   -0.1849    2.6002 H       1  UNL1        0.0270
     25 H           1.3986    1.5114    2.1809 H       1  UNL1        0.0270
     26 H           3.3890    1.8545    3.5688 H       1  UNL1        0.0270
     27 H           3.3890    0.1582    3.9882 H       1  UNL1        0.0270
     28 H           1.1709    0.4083    4.9997 H       1  UNL1        0.0358
     29 H           1.1709    2.1045    4.5804 H       1  UNL1        0.0358
     30 H           0.8265    1.8914    7.3588 H       1  UNL1        0.1548
     31 H           0.7939    2.4962    9.8054 H       1  UNL1        0.0636
     32 H           3.5780    2.7955   11.0162 H       1  UNL1        0.0618
     33 H           0.7939    3.0948   12.2271 H       1  UNL1        0.0618
     34 H           2.6709    3.6400   14.4323 H       1  UNL1        0.0618
     35 H           4.8110    2.0480    7.9924 H       1  UNL1        0.0636
     36 H           2.4843   -0.4264   -2.0174 H       1  UNL1        0.1487
     37 H           4.8032   -0.9489   -0.4904 H       1  UNL1        0.0462
     38 H           4.8032    0.7474   -0.9097 H       1  UNL1        0.0462
     39 H           4.5965    0.1614   -3.2802 H       1  UNL1        0.0281
     40 H           4.5965   -1.5348   -2.8609 H       1  UNL1        0.0281
     41 H           6.8299   -1.2928   -1.8816 H       1  UNL1        0.0288
     42 H           6.8299    0.4035   -2.3009 H       1  UNL1        0.0288
     43 H           6.6232   -0.1825   -4.6714 H       1  UNL1        0.0557
     44 H           6.6232   -1.8788   -4.2521 H       1  UNL1        0.0557
     45 H           8.7232   -0.0310   -3.7183 H       1  UNL1        0.2094
@<TRIPOS>BOND
     1     1     2    2
     2     2     3    1
     3     3     4    1
     4     4     5    1
     5     5     6    1
     6     6     7    1
     7     7     8    2
     8     7     9   am
     9     9    10    1
    10    10    11   ar
    11    11    12   ar
    12    12    13   ar
    13    13    14   ar
    14    14    15   ar
    15    10    15   ar
    16     2    16   am
    17    16    17    1
    18    17    18    1
    19    18    19    1
    20    19    20    1
    21    20    21    1
    22     3    22    1
    23     3    23    1
    24     4    24    1
    25     4    25    1
    26     5    26    1
    27     5    27    1
    28     6    28    1
    29     6    29    1
    30     9    30    1
    31    11    31    1
    32    12    32    1
    33    13    33    1
    34    14    34    1
    35    15    35    1
    36    16    36    1
    37    17    37    1
    38    17    38    1
    39    18    39    1
    40    18    40    1
    41    19    41    1
    42    19    42    1
    43    20    43    1
    44    20    44    1
    45    21    45    1
