@<TRIPOS>MOLECULE
*****
 39 38 0 0 0
SMALL
GASTEIGER

@<TRIPOS>ATOM
      1 C           0.9166   -0.0531    0.0150 C.3     1  UNL1       -0.0653
      2 C           2.4366   -0.0531    0.0150 C.3     1  UNL1       -0.0559
      3 C           2.9432   -0.5027   -1.3457 C.3     1  UNL1       -0.0533
      4 C           4.4632   -0.5027   -1.3457 C.3     1  UNL1       -0.0531
      5 C           4.9699   -0.9523   -2.7064 C.3     1  UNL1       -0.0526
      6 C           6.4899   -0.9523   -2.7064 C.3     1  UNL1       -0.0448
      7 C           6.9966   -1.4020   -4.0671 C.3     1  UNL1        0.0242
      8 C           8.5166   -1.4020   -4.0671 C.2     1  UNL1        0.2155
      9 O           9.1520   -1.0567   -3.0221 O.2     1  UNL1       -0.2756
     10 N           9.2516   -1.8014   -5.2759 N.am    1  UNL1       -0.3020
     11 C           8.5166   -2.2008   -6.4847 C.3     1  UNL1        0.0118
     12 C           7.0222   -2.1137   -6.2209 C.3     1  UNL1       -0.0493
     13 C          10.7216   -1.8014   -5.2759 C.3     1  UNL1        0.0118
     14 C          11.2282   -2.2510   -6.6366 C.3     1  UNL1       -0.0493
     15 H           0.5599    0.2634    0.9729 H       1  UNL1        0.0230
     16 H           0.5599   -1.0409   -0.1898 H       1  UNL1        0.0230
     17 H           0.5599    0.6182   -0.7381 H       1  UNL1        0.0230
     18 H           2.7933   -0.7244    0.7680 H       1  UNL1        0.0263
     19 H           2.7933    0.9347    0.2198 H       1  UNL1        0.0263
     20 H           2.5866    0.1686   -2.0988 H       1  UNL1        0.0265
     21 H           2.5866   -1.4905   -1.5505 H       1  UNL1        0.0265
     22 H           4.8199   -1.1740   -0.5927 H       1  UNL1        0.0265
     23 H           4.8199    0.4851   -1.1409 H       1  UNL1        0.0265
     24 H           4.6132   -0.2811   -3.4595 H       1  UNL1        0.0265
     25 H           4.6132   -1.9401   -2.9112 H       1  UNL1        0.0265
     26 H           6.8466   -1.6236   -1.9534 H       1  UNL1        0.0270
     27 H           6.8466    0.0354   -2.5016 H       1  UNL1        0.0270
     28 H           6.6399   -0.7307   -4.8202 H       1  UNL1        0.0358
     29 H           6.6399   -2.3898   -4.2720 H       1  UNL1        0.0358
     30 H           8.7751   -3.2064   -6.7433 H       1  UNL1        0.0462
     31 H           8.7751   -1.5473   -7.2915 H       1  UNL1        0.0462
     32 H           6.7637   -2.7672   -5.4141 H       1  UNL1        0.0245
     33 H           6.4872   -2.4044   -7.1008 H       1  UNL1        0.0245
     34 H           6.7637   -1.1081   -5.9623 H       1  UNL1        0.0245
     35 H          11.0782   -2.4727   -4.5229 H       1  UNL1        0.0462
     36 H          11.0782   -0.8136   -5.0711 H       1  UNL1        0.0462
     37 H          10.8716   -3.2388   -6.8414 H       1  UNL1        0.0245
     38 H          12.2982   -2.2510   -6.6366 H       1  UNL1        0.0245
     39 H          10.8716   -1.5798   -7.3897 H       1  UNL1        0.0245
@<TRIPOS>BOND
     1     1     2    1
     2     2     3    1
     3     3     4    1
     4     4     5    1
     5     5     6    1
     6     6     7    1
     7     7     8    1
     8     8     9    2
     9     8    10   am
    10    10    11    1
    11    11    12    1
    12    10    13    1
    13    13    14    1
    14     1    15    1
    15     1    16    1
    16     1    17    1
    17     2    18    1
    18     2    19    1
    19     3    20    1
    20     3    21    1
    21     4    22    1
    22     4    23    1
    23     5    24    1
    24     5    25    1
    25     6    26    1
    26     6    27    1
    27     7    28    1
    28     7    29    1
    29    11    30    1
    30    11    31    1
    31    12    32    1
    32    12    33    1
    33    12    34    1
    34    13    35    1
    35    13    36    1
    36    14    37    1
    37    14    38    1
    38    14    39    1
