@<TRIPOS>MOLECULE
*****
 39 38 0 0 0
SMALL
GASTEIGER

@<TRIPOS>ATOM
      1 N           1.0412    0.0536   -0.0737 N.3     1  UNL1       -0.3279
      2 C           2.5112    0.0536   -0.0737 C.3     1  UNL1        0.0166
      3 C           3.0178    0.2965   -1.4860 C.3     1  UNL1        0.0600
      4 O           4.4378    0.2965   -1.4860 O.3     1  UNL1       -0.3763
      5 C           4.9112    0.5235   -2.8054 C.3     1  UNL1        0.0711
      6 C           6.4312    0.5235   -2.8054 C.3     1  UNL1        0.0711
      7 O           6.9045    0.7504   -4.1248 O.3     1  UNL1       -0.3752
      8 C           8.3245    0.7504   -4.1248 C.3     1  UNL1        0.0711
      9 C           8.8312    0.9933   -5.5372 C.3     1  UNL1        0.0711
     10 O          10.2512    0.9933   -5.5372 O.3     1  UNL1       -0.3752
     11 C          10.7245    1.2203   -6.8566 C.3     1  UNL1        0.0711
     12 C          12.2445    1.2203   -6.8566 C.3     1  UNL1        0.0711
     13 O          12.7178    1.4472   -8.1760 O.3     1  UNL1       -0.3752
     14 C          14.1378    1.4472   -8.1760 C.3     1  UNL1        0.0708
     15 C          14.6445    1.6902   -9.5883 C.3     1  UNL1        0.0676
     16 O          16.0645    1.6902   -9.5883 O.3     1  UNL1       -0.3927
     17 H           0.7012   -0.1094    0.8741 H       1  UNL1        0.1183
     18 H           0.7012   -0.6857   -0.6887 H       1  UNL1        0.1183
     19 H           2.8679   -0.8929    0.2753 H       1  UNL1        0.0444
     20 H           2.8679    0.8291    0.5715 H       1  UNL1        0.0444
     21 H           2.6612    1.2431   -1.8350 H       1  UNL1        0.0572
     22 H           2.6612   -0.4790   -2.1312 H       1  UNL1        0.0572
     23 H           4.5545    1.4700   -3.1544 H       1  UNL1        0.0583
     24 H           4.5545   -0.2520   -3.4506 H       1  UNL1        0.0583
     25 H           6.7878   -0.4230   -2.4564 H       1  UNL1        0.0583
     26 H           6.7878    1.2990   -2.1602 H       1  UNL1        0.0583
     27 H           8.6812   -0.1961   -3.7758 H       1  UNL1        0.0583
     28 H           8.6812    1.5259   -3.4796 H       1  UNL1        0.0583
     29 H           8.4745    1.9399   -5.8862 H       1  UNL1        0.0583
     30 H           8.4745    0.2178   -6.1824 H       1  UNL1        0.0583
     31 H          10.3678    2.1668   -7.2056 H       1  UNL1        0.0583
     32 H          10.3678    0.4448   -7.5018 H       1  UNL1        0.0583
     33 H          12.6012    0.2738   -6.5076 H       1  UNL1        0.0583
     34 H          12.6012    1.9958   -6.2114 H       1  UNL1        0.0583
     35 H          14.4945    0.5007   -7.8270 H       1  UNL1        0.0583
     36 H          14.4945    2.2227   -7.5308 H       1  UNL1        0.0583
     37 H          14.2878    2.6367   -9.9373 H       1  UNL1        0.0580
     38 H          14.2878    0.9147  -10.2335 H       1  UNL1        0.0580
     39 H          16.3878    2.3932   -9.0034 H       1  UNL1        0.2095
@<TRIPOS>BOND
     1     1     2    1
     2     2     3    1
     3     3     4    1
     4     4     5    1
     5     5     6    1
     6     6     7    1
     7     7     8    1
     8     8     9    1
     9     9    10    1
    10    10    11    1
    11    11    12    1
    12    12    13    1
    13    13    14    1
    14    14    15    1
    15    15    16    1
    16     1    17    1
    17     1    18    1
    18     2    19    1
    19     2    20    1
    20     3    21    1
    21     3    22    1
    22     5    23    1
    23     5    24    1
    24     6    25    1
    25     6    26    1
    26     8    27    1
    27     8    28    1
    28     9    29    1
    29     9    30    1
    30    11    31    1
    31    11    32    1
    32    12    33    1
    33    12    34    1
    34    14    35    1
    35    14    36    1
    36    15    37    1
    37    15    38    1
    38    16    39    1
