@<TRIPOS>MOLECULE
*****
 57 56 0 0 0
SMALL
GASTEIGER

@<TRIPOS>ATOM
      1 N           0.9374    0.0601    0.0496 N.3     1  UNL1       -0.3285
      2 C           2.4074    0.0601    0.0496 C.3     1  UNL1        0.0087
      3 C           2.9140    0.8986   -1.1125 C.3     1  UNL1        0.0240
      4 N           4.3840    0.8986   -1.1125 N.am    1  UNL1       -0.3122
      5 C           5.1190    1.6434   -2.1449 C.2     1  UNL1        0.2388
      6 O           4.4836    2.2874   -3.0375 O.2     1  UNL1       -0.2733
      7 C           6.6390    1.6434   -2.1449 C.3     1  UNL1        0.1236
      8 O           7.1124    2.4268   -3.2307 O.3     1  UNL1       -0.3706
      9 C           8.5324    2.4268   -3.2307 C.3     1  UNL1        0.0483
     10 C           9.0390    3.2652   -4.3928 C.3     1  UNL1       -0.0294
     11 C          10.5590    3.2652   -4.3928 C.3     1  UNL1       -0.0489
     12 C          11.0657    4.1037   -5.5550 C.3     1  UNL1       -0.0294
     13 C          12.5857    4.1037   -5.5550 C.3     1  UNL1        0.0478
     14 O          13.0590    4.8870   -6.6407 O.3     1  UNL1       -0.3775
     15 C          14.4790    4.8870   -6.6407 C.3     1  UNL1        0.0710
     16 C          14.9857    5.7255   -7.8029 C.3     1  UNL1        0.0710
     17 O          16.4057    5.7255   -7.8029 O.3     1  UNL1       -0.3775
     18 C          16.8790    6.5088   -8.8886 C.3     1  UNL1        0.0478
     19 C          18.3990    6.5088   -8.8886 C.3     1  UNL1       -0.0294
     20 C          18.9057    7.3473  -10.0508 C.3     1  UNL1       -0.0489
     21 C          20.4257    7.3473  -10.0508 C.3     1  UNL1       -0.0296
     22 C          20.9323    8.1858  -11.2130 C.3     1  UNL1        0.0442
     23 O          22.3523    8.1858  -11.2130 O.3     1  UNL1       -0.3950
     24 H           0.5974   -0.5025    0.8295 H       1  UNL1        0.1183
     25 H           0.5974   -0.3340   -0.8276 H       1  UNL1        0.1183
     26 H           2.7640   -0.9435   -0.0525 H       1  UNL1        0.0437
     27 H           2.7640    0.4735    0.9699 H       1  UNL1        0.0437
     28 H           2.5574    1.9022   -1.0104 H       1  UNL1        0.0474
     29 H           2.5574    0.4852   -2.0328 H       1  UNL1        0.0474
     30 H           4.8763    0.3997   -0.4211 H       1  UNL1        0.1488
     31 H           6.9957    0.6398   -2.2471 H       1  UNL1        0.0656
     32 H           6.9957    2.0568   -1.2247 H       1  UNL1        0.0656
     33 H           8.8890    1.4231   -3.3328 H       1  UNL1        0.0560
     34 H           8.8890    2.8401   -2.3104 H       1  UNL1        0.0560
     35 H           8.6824    4.2689   -4.2907 H       1  UNL1        0.0287
     36 H           8.6824    2.8519   -5.3131 H       1  UNL1        0.0287
     37 H          10.9157    2.2616   -4.4949 H       1  UNL1        0.0267
     38 H          10.9157    3.6786   -3.4726 H       1  UNL1        0.0267
     39 H          10.7090    5.1073   -5.4529 H       1  UNL1        0.0287
     40 H          10.7090    3.6903   -6.4752 H       1  UNL1        0.0287
     41 H          12.9424    3.1001   -5.6571 H       1  UNL1        0.0560
     42 H          12.9424    4.5171   -4.6348 H       1  UNL1        0.0560
     43 H          14.8357    3.8834   -6.7428 H       1  UNL1        0.0583
     44 H          14.8357    5.3004   -5.7205 H       1  UNL1        0.0583
     45 H          14.6290    6.7291   -7.7008 H       1  UNL1        0.0583
     46 H          14.6290    5.3121   -8.7231 H       1  UNL1        0.0583
     47 H          16.5223    7.5124   -8.7865 H       1  UNL1        0.0560
     48 H          16.5223    6.0954   -9.8088 H       1  UNL1        0.0560
     49 H          18.7557    5.5052   -8.9907 H       1  UNL1        0.0287
     50 H          18.7557    6.9222   -7.9684 H       1  UNL1        0.0287
     51 H          18.5490    8.3509   -9.9487 H       1  UNL1        0.0267
     52 H          18.5490    6.9339  -10.9710 H       1  UNL1        0.0267
     53 H          20.7823    6.3437  -10.1529 H       1  UNL1        0.0287
     54 H          20.7823    7.7607   -9.1306 H       1  UNL1        0.0287
     55 H          20.5757    9.1894  -11.1109 H       1  UNL1        0.0557
     56 H          20.5757    7.7724  -12.1332 H       1  UNL1        0.0557
     57 H          22.6757    8.5605  -10.3787 H       1  UNL1        0.2094
@<TRIPOS>BOND
     1     1     2    1
     2     2     3    1
     3     3     4    1
     4     4     5   am
     5     5     6    2
     6     5     7    1
     7     7     8    1
     8     8     9    1
     9     9    10    1
    10    10    11    1
    11    11    12    1
    12    12    13    1
    13    13    14    1
    14    14    15    1
    15    15    16    1
    16    16    17    1
    17    17    18    1
    18    18    19    1
    19    19    20    1
    20    20    21    1
    21    21    22    1
    22    22    23    1
    23     1    24    1
    24     1    25    1
    25     2    26    1
    26     2    27    1
    27     3    28    1
    28     3    29    1
    29     4    30    1
    30     7    31    1
    31     7    32    1
    32     9    33    1
    33     9    34    1
    34    10    35    1
    35    10    36    1
    36    11    37    1
    37    11    38    1
    38    12    39    1
    39    12    40    1
    40    13    41    1
    41    13    42    1
    42    15    43    1
    43    15    44    1
    44    16    45    1
    45    16    46    1
    46    18    47    1
    47    18    48    1
    48    19    49    1
    49    19    50    1
    50    20    51    1
    51    20    52    1
    52    21    53    1
    53    21    54    1
    54    22    55    1
    55    22    56    1
    56    23    57    1
