@<TRIPOS>MOLECULE
*****
 28 27 0 0 0
SMALL
GASTEIGER

@<TRIPOS>ATOM
      1 C           1.0650   -0.0418   -0.0634 C.3     1  UNL1       -0.0157
      2 N           2.5350   -0.0418   -0.0634 N.3     1  UNL1       -0.3168
      3 C           3.0250    1.2358   -0.6005 C.3     1  UNL1        0.0191
      4 C           4.5450    1.2358   -0.6005 C.3     1  UNL1        0.0602
      5 O           5.0183    2.4700   -1.1193 O.3     1  UNL1       -0.3763
      6 C           6.4383    2.4700   -1.1193 C.3     1  UNL1        0.0711
      7 C           6.9450    3.7910   -1.6747 C.3     1  UNL1        0.0711
      8 O           8.3650    3.7910   -1.6747 O.3     1  UNL1       -0.3752
      9 C           8.8383    5.0252   -2.1935 C.3     1  UNL1        0.0708
     10 C          10.3583    5.0252   -2.1935 C.3     1  UNL1        0.0676
     11 O          10.8316    6.2594   -2.7123 O.3     1  UNL1       -0.3927
     12 H           0.7083   -0.9718    0.3275 H       1  UNL1        0.0388
     13 H           0.7083    0.0846   -1.0643 H       1  UNL1        0.0388
     14 H           0.7083    0.7617    0.5465 H       1  UNL1        0.0388
     15 H           2.8750   -0.8079   -0.6448 H       1  UNL1        0.1217
     16 H           2.6683    2.0393    0.0094 H       1  UNL1        0.0446
     17 H           2.6683    1.3622   -1.6014 H       1  UNL1        0.0446
     18 H           4.9017    0.4322   -1.2104 H       1  UNL1        0.0572
     19 H           4.9017    1.1094    0.4003 H       1  UNL1        0.0572
     20 H           6.7950    1.6664   -1.7292 H       1  UNL1        0.0583
     21 H           6.7950    2.3435   -0.1185 H       1  UNL1        0.0583
     22 H           6.5883    4.5946   -1.0648 H       1  UNL1        0.0583
     23 H           6.5883    3.9175   -2.6755 H       1  UNL1        0.0583
     24 H           8.4816    5.8288   -1.5836 H       1  UNL1        0.0583
     25 H           8.4816    5.1516   -3.1944 H       1  UNL1        0.0583
     26 H          10.7150    4.2217   -2.8034 H       1  UNL1        0.0580
     27 H          10.7150    4.8988   -1.1926 H       1  UNL1        0.0580
     28 H          10.5083    6.3740   -3.6196 H       1  UNL1        0.2095
@<TRIPOS>BOND
     1     1     2    1
     2     2     3    1
     3     3     4    1
     4     4     5    1
     5     5     6    1
     6     6     7    1
     7     7     8    1
     8     8     9    1
     9     9    10    1
    10    10    11    1
    11     1    12    1
    12     1    13    1
    13     1    14    1
    14     2    15    1
    15     3    16    1
    16     3    17    1
    17     4    18    1
    18     4    19    1
    19     6    20    1
    20     6    21    1
    21     7    22    1
    22     7    23    1
    23     9    24    1
    24     9    25    1
    25    10    26    1
    26    10    27    1
    27    11    28    1
