@<TRIPOS>MOLECULE
*****
 61 63 0 0 0
SMALL
GASTEIGER

@<TRIPOS>ATOM
      1 C           1.0599   -0.0262    0.0757 C.3     1  UNL1       -0.0652
      2 C           2.5799   -0.0262    0.0757 C.3     1  UNL1       -0.0545
      3 C           3.0866    0.5474   -1.2376 C.3     1  UNL1       -0.0373
      4 C           4.6066    0.5474   -1.2376 C.3     1  UNL1        0.0165
      5 N           5.0966    1.1021   -2.5077 N.am    1  UNL1       -0.2811
      6 C           4.1413    1.5493   -3.5316 C.3     1  UNL1        0.0412
      7 C           2.7228    1.3307   -3.0311 C.ar    1  UNL1       -0.0301
      8 C           1.6027    1.6930   -3.8607 C.ar    1  UNL1       -0.0571
      9 C           0.2586    1.4859   -3.3864 C.ar    1  UNL1       -0.0615
     10 C          -0.8615    1.8482   -4.2160 C.ar    1  UNL1       -0.0617
     11 C          -2.2055    1.6411   -3.7417 C.ar    1  UNL1       -0.0615
     12 C           2.4990    0.7613   -1.7273 C.ar    1  UNL1       -0.0571
     13 C           6.5418    1.2096   -2.7539 C.2     1  UNL1        0.3067
     14 O           7.3677    0.8230   -1.8686 O.2     1  UNL1       -0.2523
     15 N           7.0318    1.7643   -4.0239 N.am    1  UNL1       -0.2693
     16 C           8.4771    1.8718   -4.2701 C.ar    1  UNL1        0.0350
     17 C           8.9571    2.4153   -5.5144 C.ar    1  UNL1       -0.0370
     18 C          10.3731    2.5206   -5.7556 C.ar    1  UNL1       -0.0182
     19 C          10.8531    3.0641   -6.9999 C.ar    1  UNL1        0.1207
     20 O           9.9304    3.4961   -7.9890 O.3     1  UNL1       -0.4901
     21 C           8.5343    3.3922   -7.7512 C.3     1  UNL1        0.1091
     22 C           7.7743    3.9191   -8.9576 C.3     1  UNL1        0.0772
     23 N           6.3290    3.8116   -8.7114 N.ar    1  UNL1       -0.2481
     24 C           5.4239    4.2353   -9.6816 C.ar    1  UNL1        0.0500
     25 C           4.0080    4.1299   -9.4404 C.ar    1  UNL1        0.0963
     26 C           3.5013    3.5564   -8.1271 C.3     1  UNL1        0.0393
     27 N           4.6447    3.1866   -7.2804 N.3     1  UNL1       -0.3248
     28 N           3.1029    4.5537  -10.4106 N.ar    1  UNL1       -0.1332
     29 N           5.8805    3.3039   -7.5489 N.ar    1  UNL1       -0.0653
     30 C          12.2691    3.1694   -7.2411 C.ar    1  UNL1       -0.0182
     31 C           9.4129    1.4337   -3.2669 C.ar    1  UNL1       -0.0370
     32 H           0.7032   -0.4299    1.0002 H       1  UNL1        0.0230
     33 H           0.7032   -0.6249   -0.7362 H       1  UNL1        0.0230
     34 H           0.7032    0.9764   -0.0369 H       1  UNL1        0.0230
     35 H           2.9366   -1.0287    0.1882 H       1  UNL1        0.0263
     36 H           2.9366    0.5726    0.8876 H       1  UNL1        0.0263
     37 H           2.7299    1.5499   -1.3502 H       1  UNL1        0.0280
     38 H           2.7299   -0.0513   -2.0495 H       1  UNL1        0.0280
     39 H           4.9632   -0.4551   -1.1250 H       1  UNL1        0.0465
     40 H           4.9632    1.1462   -0.4257 H       1  UNL1        0.0465
     41 H           4.2929    0.9884   -4.4301 H       1  UNL1        0.0514
     42 H           4.2929    2.5896   -3.7308 H       1  UNL1        0.0514
     43 H           1.7631    2.1010   -4.7949 H       1  UNL1        0.0621
     44 H           0.0982    1.0779   -2.4522 H       1  UNL1        0.0618
     45 H          -0.7011    2.2562   -5.1502 H       1  UNL1        0.0618
     46 H          -3.2369    1.6555   -3.7746 H       1  UNL1        0.0618
     47 H           2.9836    0.3966   -0.8923 H       1  UNL1        0.0621
     48 H           6.3920    2.0638   -4.7097 H       1  UNL1        0.1564
     49 H           8.2865    2.7292   -6.2333 H       1  UNL1        0.0637
     50 H          11.0437    2.2067   -5.0368 H       1  UNL1        0.0655
     51 H           8.2758    3.9683   -6.8874 H       1  UNL1        0.0715
     52 H           8.2758    2.3670   -7.5867 H       1  UNL1        0.0715
     53 H           8.0328    3.3430   -9.8214 H       1  UNL1        0.0543
     54 H           8.0328    4.9443   -9.1221 H       1  UNL1        0.0543
     55 H           5.7679    4.6247  -10.5732 H       1  UNL1        0.0846
     56 H           2.9069    2.6885   -8.3227 H       1  UNL1        0.0488
     57 H           2.9069    4.2897   -7.6234 H       1  UNL1        0.0488
     58 H           5.2113    2.4875   -7.7606 H       1  UNL1        0.1186
     59 H           4.3047    2.8017   -6.3991 H       1  UNL1        0.1186
     60 H          13.1289    3.3979   -7.7642 H       1  UNL1        0.0655
     61 H           9.4774    1.0215   -2.3230 H       1  UNL1        0.0637
@<TRIPOS>BOND
     1     1     2    1
     2     2     3    1
     3     3     4    1
     4     4     5    1
     5     5     6    1
     6     6     7    1
     7     7     8   ar
     8     8     9   ar
     9     9    10   ar
    10    10    11   ar
    11    11    12   ar
    12     7    12   ar
    13     5    13   am
    14    13    14    2
    15    13    15   am
    16    15    16    1
    17    16    17   ar
    18    17    18   ar
    19    18    19   ar
    20    19    20    1
    21    20    21    1
    22    21    22    1
    23    22    23    1
    24    23    24   ar
    25    24    25   ar
    26    25    26    1
    27    26    27    1
    28    25    28   ar
    29    28    29   ar
    30    23    29   ar
    31    19    30   ar
    32    30    31   ar
    33    16    31   ar
    34     1    32    1
    35     1    33    1
    36     1    34    1
    37     2    35    1
    38     2    36    1
    39     3    37    1
    40     3    38    1
    41     4    39    1
    42     4    40    1
    43     6    41    1
    44     6    42    1
    45     8    43    1
    46     9    44    1
    47    10    45    1
    48    11    46    1
    49    12    47    1
    50    15    48    1
    51    17    49    1
    52    18    50    1
    53    21    51    1
    54    21    52    1
    55    22    53    1
    56    22    54    1
    57    24    55    1
    58    26    56    1
    59    26    57    1
    60    27    58    1
    61    27    59    1
    62    30    60    1
    63    31    61    1
