@<TRIPOS>MOLECULE
*****
 28 28 0 0 0
SMALL
GASTEIGER

@<TRIPOS>ATOM
      1 C           1.0723    0.0677    0.0137 C.3     1  UNL1       -0.0191
      2 C           2.5923    0.0677    0.0137 C.ar    1  UNL1        0.0798
      3 C           3.3124   -0.9591    0.7217 C.ar    1  UNL1        0.0484
      4 N           4.7052   -0.9591    0.7217 N.ar    1  UNL1       -0.2515
      5 C           5.4402    0.0890   -0.0009 C.3     1  UNL1        0.0432
      6 C           4.4525    1.0401   -0.6567 C.3     1  UNL1       -0.0333
      7 C           5.2125    2.1239   -1.4039 C.3     1  UNL1       -0.0510
      8 C           4.2247    3.0751   -2.0597 C.3     1  UNL1       -0.0466
      9 C           4.9847    4.1588   -2.8069 C.3     1  UNL1        0.0028
     10 C           3.9970    5.1100   -3.4626 C.2     1  UNL1        0.1203
     11 O           4.4206    6.0964   -4.1428 O.2     1  UNL1       -0.3010
     12 N           5.3779   -1.9184    1.3831 N.ar    1  UNL1       -0.0655
     13 N           3.2887    1.0608   -0.6710 N.ar    1  UNL1       -0.1348
     14 H           0.7156   -0.7628    0.5863 H       1  UNL1        0.0294
     15 H           0.7156   -0.0129   -0.9919 H       1  UNL1        0.0294
     16 H           0.7156    0.9789    0.4467 H       1  UNL1        0.0294
     17 H           2.7964   -1.6949    1.2290 H       1  UNL1        0.0845
     18 H           6.0554   -0.3603   -0.7524 H       1  UNL1        0.0509
     19 H           6.0554    0.6315    0.6862 H       1  UNL1        0.0509
     20 H           3.8373    1.4894    0.0947 H       1  UNL1        0.0283
     21 H           3.8373    0.4976   -1.3438 H       1  UNL1        0.0283
     22 H           5.8276    1.6747   -2.1553 H       1  UNL1        0.0266
     23 H           5.8276    2.6665   -0.7168 H       1  UNL1        0.0266
     24 H           3.6096    3.5243   -1.3082 H       1  UNL1        0.0269
     25 H           3.6096    2.5325   -2.7468 H       1  UNL1        0.0269
     26 H           5.5999    3.7096   -3.5583 H       1  UNL1        0.0339
     27 H           5.5999    4.7014   -2.1198 H       1  UNL1        0.0339
     28 H           2.9823    4.9547   -3.3556 H       1  UNL1        0.1026
@<TRIPOS>BOND
     1     1     2    1
     2     2     3   ar
     3     3     4   ar
     4     4     5    1
     5     5     6    1
     6     6     7    1
     7     7     8    1
     8     8     9    1
     9     9    10    1
    10    10    11    2
    11     4    12   ar
    12    12    13   ar
    13     2    13   ar
    14     1    14    1
    15     1    15    1
    16     1    16    1
    17     3    17    1
    18     5    18    1
    19     5    19    1
    20     6    20    1
    21     6    21    1
    22     7    22    1
    23     7    23    1
    24     8    24    1
    25     8    25    1
    26     9    26    1
    27     9    27    1
    28    10    28    1
