@<TRIPOS>MOLECULE
*****
 45 44 0 0 0
SMALL
GASTEIGER

@<TRIPOS>ATOM
      1 C           1.0711   -0.0470    0.0523 C.3     1  UNL1       -0.0416
      2 C           2.5911   -0.0470    0.0523 C.3     1  UNL1        0.0449
      3 O           3.0644   -1.3818   -0.0514 O.3     1  UNL1       -0.3778
      4 C           4.4844   -1.3818   -0.0514 C.3     1  UNL1        0.0710
      5 C           4.9911   -2.8105   -0.1625 C.3     1  UNL1        0.0711
      6 O           6.4111   -2.8105   -0.1625 O.3     1  UNL1       -0.3752
      7 C           6.8844   -4.1453   -0.2662 C.3     1  UNL1        0.0711
      8 C           8.4044   -4.1453   -0.2662 C.3     1  UNL1        0.0711
      9 O           8.8777   -5.4801   -0.3700 O.3     1  UNL1       -0.3752
     10 C          10.2977   -5.4801   -0.3700 C.3     1  UNL1        0.0711
     11 C          10.8044   -6.9088   -0.4811 C.3     1  UNL1        0.0711
     12 O          12.2244   -6.9088   -0.4811 O.3     1  UNL1       -0.3752
     13 C          12.6977   -8.2436   -0.5848 C.3     1  UNL1        0.0711
     14 C          14.2177   -8.2436   -0.5848 C.3     1  UNL1        0.0710
     15 O          14.6910   -9.5784   -0.6886 O.3     1  UNL1       -0.3771
     16 C          16.1110   -9.5784   -0.6886 C.3     1  UNL1        0.0542
     17 C          16.6177  -11.0071   -0.7996 C.3     1  UNL1        0.0262
     18 C          18.1377  -11.0071   -0.7996 C.2     1  UNL1        0.1225
     19 O          18.7732  -12.1044   -0.8849 O.2     1  UNL1       -0.3010
     20 H           0.7144    0.9588    0.1305 H       1  UNL1        0.0252
     21 H           0.7144   -0.6176    0.8842 H       1  UNL1        0.0252
     22 H           0.7144   -0.4822   -0.8578 H       1  UNL1        0.0252
     23 H           2.9478    0.3882    0.9624 H       1  UNL1        0.0557
     24 H           2.9478    0.5236   -0.7796 H       1  UNL1        0.0557
     25 H           4.8411   -0.9466    0.8587 H       1  UNL1        0.0583
     26 H           4.8411   -0.8112   -0.8834 H       1  UNL1        0.0583
     27 H           4.6344   -3.2457   -1.0726 H       1  UNL1        0.0583
     28 H           4.6344   -3.3811    0.6694 H       1  UNL1        0.0583
     29 H           6.5277   -4.5805   -1.1764 H       1  UNL1        0.0583
     30 H           6.5277   -4.7159    0.5657 H       1  UNL1        0.0583
     31 H           8.7611   -3.7101    0.6439 H       1  UNL1        0.0583
     32 H           8.7611   -3.5747   -1.0982 H       1  UNL1        0.0583
     33 H          10.6544   -5.0449    0.5401 H       1  UNL1        0.0583
     34 H          10.6544   -4.9095   -1.2019 H       1  UNL1        0.0583
     35 H          10.4477   -7.3440   -1.3912 H       1  UNL1        0.0583
     36 H          10.4477   -7.4794    0.3509 H       1  UNL1        0.0583
     37 H          12.3411   -8.6788   -1.4949 H       1  UNL1        0.0583
     38 H          12.3410   -8.8142    0.2471 H       1  UNL1        0.0583
     39 H          14.5744   -7.8084    0.3253 H       1  UNL1        0.0583
     40 H          14.5744   -7.6730   -1.4167 H       1  UNL1        0.0583
     41 H          16.4677   -9.1432    0.2216 H       1  UNL1        0.0564
     42 H          16.4677   -9.0078   -1.5205 H       1  UNL1        0.0564
     43 H          16.2610  -11.4423   -1.7097 H       1  UNL1        0.0361
     44 H          16.2610  -11.5777    0.0323 H       1  UNL1        0.0361
     45 H          18.6537  -10.1161   -0.7304 H       1  UNL1        0.1027
@<TRIPOS>BOND
     1     1     2    1
     2     2     3    1
     3     3     4    1
     4     4     5    1
     5     5     6    1
     6     6     7    1
     7     7     8    1
     8     8     9    1
     9     9    10    1
    10    10    11    1
    11    11    12    1
    12    12    13    1
    13    13    14    1
    14    14    15    1
    15    15    16    1
    16    16    17    1
    17    17    18    1
    18    18    19    2
    19     1    20    1
    20     1    21    1
    21     1    22    1
    22     2    23    1
    23     2    24    1
    24     4    25    1
    25     4    26    1
    26     5    27    1
    27     5    28    1
    28     7    29    1
    29     7    30    1
    30     8    31    1
    31     8    32    1
    32    10    33    1
    33    10    34    1
    34    11    35    1
    35    11    36    1
    36    13    37    1
    37    13    38    1
    38    14    39    1
    39    14    40    1
    40    16    41    1
    41    16    42    1
    42    17    43    1
    43    17    44    1
    44    18    45    1
