@<TRIPOS>MOLECULE
*****
 27 27 0 0 0
SMALL
GASTEIGER

@<TRIPOS>ATOM
      1 N           0.9366   -0.0494   -0.0596 N.3     1  UNL1       -0.3283
      2 C           2.4066   -0.0494   -0.0596 C.3     1  UNL1        0.0128
      3 C           2.9133   -0.8513   -1.2473 C.3     1  UNL1        0.0554
      4 N           4.3833   -0.8513   -1.2473 N.ar    1  UNL1       -0.2502
      5 C           5.0797   -1.5263   -2.2469 C.ar    1  UNL1        0.0510
      6 C           6.5199   -1.5263   -2.2469 C.ar    1  UNL1        0.1083
      7 C           7.2799   -0.7897   -1.1560 C.3     1  UNL1        0.0930
      8 O           6.3571   -0.1857   -0.2615 O.3     1  UNL1       -0.3713
      9 C           7.0671    0.5025    0.7577 C.3     1  UNL1        0.0712
     10 C           6.0794    1.1490    1.7152 C.3     1  UNL1        0.0676
     11 O           6.7894    1.8371    2.7344 O.3     1  UNL1       -0.3927
     12 N           7.2163   -2.2013   -3.2466 N.ar    1  UNL1       -0.1322
     13 N           5.0560   -0.1993   -0.2816 N.ar    1  UNL1       -0.0653
     14 H           0.5966    0.4888    0.7374 H       1  UNL1        0.1183
     15 H           0.5966   -1.0086    0.0080 H       1  UNL1        0.1183
     16 H           2.7633   -0.4912    0.8473 H       1  UNL1        0.0440
     17 H           2.7633    0.9570   -0.1304 H       1  UNL1        0.0440
     18 H           2.5566   -0.4095   -2.1542 H       1  UNL1        0.0522
     19 H           2.5566   -1.8576   -1.1764 H       1  UNL1        0.0522
     20 H           4.5637   -2.0264   -2.9876 H       1  UNL1        0.0846
     21 H           7.8951   -0.0339   -1.5979 H       1  UNL1        0.0626
     22 H           7.8951   -1.4820   -0.6201 H       1  UNL1        0.0626
     23 H           7.6823    1.2582    0.3158 H       1  UNL1        0.0583
     24 H           7.6823   -0.1899    1.2936 H       1  UNL1        0.0583
     25 H           5.4642    0.3932    2.1571 H       1  UNL1        0.0580
     26 H           5.4642    1.8413    1.1793 H       1  UNL1        0.0580
     27 H           7.3471    1.2095    3.2202 H       1  UNL1        0.2095
@<TRIPOS>BOND
     1     1     2    1
     2     2     3    1
     3     3     4    1
     4     4     5   ar
     5     5     6   ar
     6     6     7    1
     7     7     8    1
     8     8     9    1
     9     9    10    1
    10    10    11    1
    11     6    12   ar
    12    12    13   ar
    13     4    13   ar
    14     1    14    1
    15     1    15    1
    16     2    16    1
    17     2    17    1
    18     3    18    1
    19     3    19    1
    20     5    20    1
    21     7    21    1
    22     7    22    1
    23     9    23    1
    24     9    24    1
    25    10    25    1
    26    10    26    1
    27    11    27    1
