@<TRIPOS>MOLECULE
*****
 37 38 0 0 0
SMALL
GASTEIGER

@<TRIPOS>ATOM
      1 C           1.0088   -0.0874    0.0478 C.3     1  UNL1       -0.0127
      2 N           2.4788   -0.0874    0.0478 N.3     1  UNL1       -0.3029
      3 C           2.9687   -1.3476   -0.5290 C.3     1  UNL1        0.0114
      4 C           4.4887   -1.3476   -0.5290 C.3     1  UNL1        0.0117
      5 N           4.9787   -2.6078   -1.1057 N.3     1  UNL1       -0.2996
      6 C           4.4887   -2.7385   -2.4855 C.3     1  UNL1        0.0019
      7 C           2.9687   -2.7384   -2.4855 C.3     1  UNL1       -0.0260
      8 C           2.4621   -2.8735   -3.9122 C.3     1  UNL1       -0.0364
      9 C           0.9421   -2.8735   -3.9122 C.3     1  UNL1       -0.0038
     10 N           0.4521   -3.0041   -5.2919 N.3     1  UNL1       -0.3160
     11 C          -1.0179   -3.0041   -5.2919 C.3     1  UNL1       -0.0038
     12 C           2.4621   -1.4354   -1.8891 C.3     1  UNL1       -0.0364
     13 C           6.4487   -2.6078   -1.1057 C.3     1  UNL1        0.0117
     14 C           2.9688    0.0432    1.4276 C.3     1  UNL1        0.0114
     15 H           0.6521   -0.1825   -0.9565 H       1  UNL1        0.0391
     16 H           0.6521    0.8299    0.4676 H       1  UNL1        0.0391
     17 H           0.6521   -0.9096    0.6323 H       1  UNL1        0.0391
     18 H           2.6121   -1.4427   -1.5333 H       1  UNL1        0.0439
     19 H           2.6121   -2.1698    0.0555 H       1  UNL1        0.0439
     20 H           4.8454   -1.2525    0.4753 H       1  UNL1        0.0439
     21 H           4.8454   -0.5254   -1.1135 H       1  UNL1        0.0439
     22 H           4.8454   -3.6557   -2.9053 H       1  UNL1        0.0429
     23 H           4.8454   -1.9162   -3.0700 H       1  UNL1        0.0429
     24 H           2.6121   -3.5607   -1.9010 H       1  UNL1        0.0314
     25 H           2.8187   -3.7908   -4.3320 H       1  UNL1        0.0281
     26 H           2.8187   -2.0513   -4.4967 H       1  UNL1        0.0281
     27 H           0.5854   -1.9562   -3.4923 H       1  UNL1        0.0424
     28 H           0.5854   -3.6957   -3.3277 H       1  UNL1        0.0424
     29 H           0.7921   -3.8786   -5.6921 H       1  UNL1        0.1219
     30 H          -1.5842   -3.9009   -5.1504 H       1  UNL1        0.0424
     31 H          -1.8403   -2.6246   -5.8617 H       1  UNL1        0.0424
     32 H           2.1834   -1.4362   -0.8560 H       1  UNL1        0.0281
     33 H           2.9557   -0.4890   -1.8141 H       1  UNL1        0.0281
     34 H           7.0163   -2.1806   -1.9058 H       1  UNL1        0.0439
     35 H           7.2738   -3.2661   -0.9300 H       1  UNL1        0.0439
     36 H           3.2404    1.0210    1.7666 H       1  UNL1        0.0439
     37 H           2.4722   -0.2019    2.3431 H       1  UNL1        0.0439
@<TRIPOS>BOND
     1     1     2    1
     2     2     3    1
     3     3     4    1
     4     4     5    1
     5     5     6    1
     6     6     7    1
     7     7     8    1
     8     8     9    1
     9     9    10    1
    10    10    11    1
    11    11    12    1
    12     7    12    1
    13     5    13    1
    14    13    14    1
    15     2    14    1
    16     1    15    1
    17     1    16    1
    18     1    17    1
    19     3    18    1
    20     3    19    1
    21     4    20    1
    22     4    21    1
    23     6    22    1
    24     6    23    1
    25     7    24    1
    26     8    25    1
    27     8    26    1
    28     9    27    1
    29     9    28    1
    30    10    29    1
    31    11    30    1
    32    11    31    1
    33    12    32    1
    34    12    33    1
    35    13    34    1
    36    13    35    1
    37    14    36    1
    38    14    37    1
