@<TRIPOS>MOLECULE
*****
 33 32 0 0 0
SMALL
GASTEIGER

@<TRIPOS>ATOM
      1 C           0.9868   -0.0719    0.0683 C.3     1  UNL1       -0.0653
      2 C           2.5068   -0.0719    0.0683 C.3     1  UNL1       -0.0559
      3 C           3.0135   -1.3565    0.7034 C.3     1  UNL1       -0.0533
      4 C           4.5335   -1.3565    0.7034 C.3     1  UNL1       -0.0531
      5 C           5.0401   -2.6412    1.3385 C.3     1  UNL1       -0.0531
      6 C           6.5601   -2.6412    1.3385 C.3     1  UNL1       -0.0530
      7 C           7.0668   -3.9258    1.9736 C.3     1  UNL1       -0.0516
      8 C           8.5868   -3.9258    1.9736 C.3     1  UNL1       -0.0374
      9 C           9.0935   -5.2105    2.6087 C.3     1  UNL1        0.0113
     10 N          10.5635   -5.2105    2.6087 N.am    1  UNL1       -0.3179
     11 C          11.2985   -6.3517    3.1729 C.2     1  UNL1        0.1999
     12 O          12.5694   -6.3517    3.1729 O.2     1  UNL1       -0.2795
     13 H           0.6302    0.8324   -0.3788 H       1  UNL1        0.0230
     14 H           0.6302   -0.1369    1.0750 H       1  UNL1        0.0230
     15 H           0.6302   -0.9112   -0.4914 H       1  UNL1        0.0230
     16 H           2.8635    0.7675    0.6279 H       1  UNL1        0.0263
     17 H           2.8635   -0.0069   -0.9384 H       1  UNL1        0.0263
     18 H           2.6568   -2.1959    0.1437 H       1  UNL1        0.0265
     19 H           2.6568   -1.4215    1.7101 H       1  UNL1        0.0265
     20 H           4.8902   -0.5172    1.2630 H       1  UNL1        0.0265
     21 H           4.8902   -1.2916   -0.3033 H       1  UNL1        0.0265
     22 H           4.6835   -3.4805    0.7789 H       1  UNL1        0.0265
     23 H           4.6835   -2.7062    2.3452 H       1  UNL1        0.0265
     24 H           6.9168   -1.8018    1.8981 H       1  UNL1        0.0265
     25 H           6.9168   -2.5762    0.3318 H       1  UNL1        0.0265
     26 H           6.7101   -4.7652    1.4140 H       1  UNL1        0.0266
     27 H           6.7101   -3.9908    2.9803 H       1  UNL1        0.0266
     28 H           8.9435   -3.0865    2.5332 H       1  UNL1        0.0280
     29 H           8.9435   -3.8609    0.9669 H       1  UNL1        0.0280
     30 H           8.7368   -6.0498    2.0491 H       1  UNL1        0.0462
     31 H           8.7368   -5.2755    3.6154 H       1  UNL1        0.0462
     32 H          11.0557   -4.4462    2.2308 H       1  UNL1        0.1484
     33 H          10.7825   -7.1529    3.5690 H       1  UNL1        0.1251
@<TRIPOS>BOND
     1     1     2    1
     2     2     3    1
     3     3     4    1
     4     4     5    1
     5     5     6    1
     6     6     7    1
     7     7     8    1
     8     8     9    1
     9     9    10    1
    10    10    11   am
    11    11    12    2
    12     1    13    1
    13     1    14    1
    14     1    15    1
    15     2    16    1
    16     2    17    1
    17     3    18    1
    18     3    19    1
    19     4    20    1
    20     4    21    1
    21     5    22    1
    22     5    23    1
    23     6    24    1
    24     6    25    1
    25     7    26    1
    26     7    27    1
    27     8    28    1
    28     8    29    1
    29     9    30    1
    30     9    31    1
    31    10    32    1
    32    11    33    1
