@<TRIPOS>MOLECULE
*****
 33 33 0 0 0
SMALL
GASTEIGER

@<TRIPOS>ATOM
      1 C           1.0865   -0.0358   -0.0353 C.3     1  UNL1       -0.0653
      2 C           2.6065   -0.0358   -0.0353 C.3     1  UNL1       -0.0559
      3 C           3.1131   -1.1171   -0.9758 C.3     1  UNL1       -0.0529
      4 C           4.6331   -1.1171   -0.9758 C.3     1  UNL1       -0.0448
      5 C           5.1398   -2.1983   -1.9162 C.3     1  UNL1        0.0242
      6 C           6.6598   -2.1983   -1.9162 C.2     1  UNL1        0.2156
      7 O           7.2952   -1.3679   -1.1939 O.2     1  UNL1       -0.2756
      8 N           7.3948   -3.1589   -2.7517 N.am    1  UNL1       -0.2991
      9 C           8.8648   -3.1589   -2.7517 C.3     1  UNL1        0.0272
     10 C           9.3715   -4.2402   -3.6922 C.3     1  UNL1        0.0118
     11 N          10.8415   -4.2402   -3.6922 N.3     1  UNL1       -0.3130
     12 C          11.3314   -5.2859   -4.6017 C.3     1  UNL1        0.0118
     13 C           6.6598   -4.1194   -3.5872 C.3     1  UNL1        0.0272
     14 H           0.7298    0.7254    0.6268 H       1  UNL1        0.0230
     15 H           0.7298   -0.9897    0.2929 H       1  UNL1        0.0230
     16 H           0.7298    0.1570   -1.0255 H       1  UNL1        0.0230
     17 H           2.9631   -0.2285    0.9550 H       1  UNL1        0.0263
     18 H           2.9631    0.9182   -0.3634 H       1  UNL1        0.0263
     19 H           2.7565   -0.9243   -1.9660 H       1  UNL1        0.0265
     20 H           2.7565   -2.0710   -0.6476 H       1  UNL1        0.0265
     21 H           4.9898   -1.3098    0.0145 H       1  UNL1        0.0270
     22 H           4.9898   -0.1631   -1.3039 H       1  UNL1        0.0270
     23 H           4.7831   -2.0056   -2.9065 H       1  UNL1        0.0358
     24 H           4.7831   -3.1523   -1.5881 H       1  UNL1        0.0358
     25 H           9.2215   -3.3517   -1.7615 H       1  UNL1        0.0477
     26 H           9.2215   -2.2050   -3.0799 H       1  UNL1        0.0477
     27 H           9.0148   -4.0474   -4.6824 H       1  UNL1        0.0439
     28 H           9.0148   -5.1941   -3.3640 H       1  UNL1        0.0439
     29 H          11.1815   -4.4239   -2.7483 H       1  UNL1        0.1220
     30 H          11.7727   -6.1855   -4.2263 H       1  UNL1        0.0439
     31 H          11.9663   -5.3644   -5.4595 H       1  UNL1        0.0439
     32 H           6.0825   -4.8587   -3.0723 H       1  UNL1        0.0477
     33 H           5.8936   -3.8883   -4.2974 H       1  UNL1        0.0477
@<TRIPOS>BOND
     1     1     2    1
     2     2     3    1
     3     3     4    1
     4     4     5    1
     5     5     6    1
     6     6     7    2
     7     6     8   am
     8     8     9    1
     9     9    10    1
    10    10    11    1
    11    11    12    1
    12    12    13    1
    13     8    13    1
    14     1    14    1
    15     1    15    1
    16     1    16    1
    17     2    17    1
    18     2    18    1
    19     3    19    1
    20     3    20    1
    21     4    21    1
    22     4    22    1
    23     5    23    1
    24     5    24    1
    25     9    25    1
    26     9    26    1
    27    10    27    1
    28    10    28    1
    29    11    29    1
    30    12    30    1
    31    12    31    1
    32    13    32    1
    33    13    33    1
