@<TRIPOS>MOLECULE
*****
 30 29 0 0 0
SMALL
GASTEIGER

@<TRIPOS>ATOM
      1 C           1.0815    0.0564   -0.0131 C.3     1  UNL1       -0.0653
      2 C           2.6015    0.0564   -0.0131 C.3     1  UNL1       -0.0559
      3 C           3.1082    1.4172    0.4363 C.3     1  UNL1       -0.0533
      4 C           4.6282    1.4172    0.4363 C.3     1  UNL1       -0.0517
      5 C           5.1348    2.7780    0.8857 C.3     1  UNL1       -0.0374
      6 C           6.6548    2.7780    0.8857 C.3     1  UNL1        0.0116
      7 N           7.1448    4.0940    1.3202 N.am    1  UNL1       -0.3153
      8 C           8.5901    4.3491    1.4045 C.2     1  UNL1        0.2128
      9 O           9.4160    3.4318    1.1016 O.2     1  UNL1       -0.2758
     10 C           9.0968    5.7099    1.8539 C.3     1  UNL1        0.0211
     11 C          10.6168    5.7099    1.8539 C.3     1  UNL1       -0.0570
     12 H           0.7249   -0.9015   -0.3294 H       1  UNL1        0.0230
     13 H           0.7249    0.8093   -0.6845 H       1  UNL1        0.0230
     14 H           0.7249    0.2614    0.9747 H       1  UNL1        0.0230
     15 H           2.9582   -0.1486   -1.0008 H       1  UNL1        0.0263
     16 H           2.9582   -0.6965    0.6583 H       1  UNL1        0.0263
     17 H           2.7515    1.6222    1.4240 H       1  UNL1        0.0265
     18 H           2.7515    2.1701   -0.2351 H       1  UNL1        0.0265
     19 H           4.9849    1.2122   -0.5515 H       1  UNL1        0.0266
     20 H           4.9849    0.6643    1.1077 H       1  UNL1        0.0266
     21 H           4.7782    2.9830    1.8734 H       1  UNL1        0.0280
     22 H           4.7782    3.5309    0.2142 H       1  UNL1        0.0280
     23 H           7.0115    2.5730   -0.1021 H       1  UNL1        0.0462
     24 H           7.0115    2.0251    1.5571 H       1  UNL1        0.0462
     25 H           6.5051    4.8046    1.5549 H       1  UNL1        0.1487
     26 H           8.7401    5.9149    2.8416 H       1  UNL1        0.0356
     27 H           8.7401    6.4628    1.1824 H       1  UNL1        0.0356
     28 H          10.9734    4.9570    2.5253 H       1  UNL1        0.0234
     29 H          10.9734    6.6678    2.1702 H       1  UNL1        0.0234
     30 H          10.9734    5.5049    0.8661 H       1  UNL1        0.0234
@<TRIPOS>BOND
     1     1     2    1
     2     2     3    1
     3     3     4    1
     4     4     5    1
     5     5     6    1
     6     6     7    1
     7     7     8   am
     8     8     9    2
     9     8    10    1
    10    10    11    1
    11     1    12    1
    12     1    13    1
    13     1    14    1
    14     2    15    1
    15     2    16    1
    16     3    17    1
    17     3    18    1
    18     4    19    1
    19     4    20    1
    20     5    21    1
    21     5    22    1
    22     6    23    1
    23     6    24    1
    24     7    25    1
    25    10    26    1
    26    10    27    1
    27    11    28    1
    28    11    29    1
    29    11    30    1
