@<TRIPOS>MOLECULE
*****
 35 34 0 0 0
SMALL
GASTEIGER

@<TRIPOS>ATOM
      1 C           1.0479   -0.0157    0.0863 C.3     1  UNL1       -0.0157
      2 N           2.5179   -0.0157    0.0863 N.3     1  UNL1       -0.3168
      3 C           3.0079    1.1429    0.8469 C.3     1  UNL1        0.0191
      4 C           4.5279    1.1429    0.8469 C.3     1  UNL1        0.0602
      5 O           5.0013    2.2620    1.5816 O.3     1  UNL1       -0.3763
      6 C           6.4213    2.2620    1.5816 C.3     1  UNL1        0.0711
      7 C           6.9279    3.4600    2.3681 C.3     1  UNL1        0.0711
      8 O           8.3479    3.4600    2.3681 O.3     1  UNL1       -0.3752
      9 C           8.8212    4.5792    3.1028 C.3     1  UNL1        0.0711
     10 C          10.3412    4.5792    3.1028 C.3     1  UNL1        0.0711
     11 O          10.8146    5.6984    3.8375 O.3     1  UNL1       -0.3752
     12 C          12.2346    5.6984    3.8375 C.3     1  UNL1        0.0708
     13 C          12.7412    6.8964    4.6240 C.3     1  UNL1        0.0676
     14 O          14.1612    6.8964    4.6240 O.3     1  UNL1       -0.3927
     15 H           0.6913   -0.8590   -0.4673 H       1  UNL1        0.0388
     16 H           0.6913    0.8854   -0.3672 H       1  UNL1        0.0388
     17 H           0.6913   -0.0735    1.0935 H       1  UNL1        0.0388
     18 H           2.8579    0.0394   -0.8737 H       1  UNL1        0.1217
     19 H           2.6513    1.0851    1.8541 H       1  UNL1        0.0446
     20 H           2.6513    2.0440    0.3934 H       1  UNL1        0.0446
     21 H           4.8846    1.2007   -0.1602 H       1  UNL1        0.0572
     22 H           4.8846    0.2418    1.3005 H       1  UNL1        0.0572
     23 H           6.7779    2.3198    0.5745 H       1  UNL1        0.0583
     24 H           6.7779    1.3609    2.0352 H       1  UNL1        0.0583
     25 H           6.5712    3.4022    3.3753 H       1  UNL1        0.0583
     26 H           6.5712    4.3611    1.9146 H       1  UNL1        0.0583
     27 H           8.4646    4.5214    4.1100 H       1  UNL1        0.0583
     28 H           8.4646    5.4803    2.6493 H       1  UNL1        0.0583
     29 H          10.6979    4.6370    2.0957 H       1  UNL1        0.0583
     30 H          10.6979    3.6781    3.5563 H       1  UNL1        0.0583
     31 H          12.5912    5.7562    2.8304 H       1  UNL1        0.0583
     32 H          12.5912    4.7973    4.2911 H       1  UNL1        0.0583
     33 H          12.3846    6.8386    5.6311 H       1  UNL1        0.0580
     34 H          12.3846    7.7975    4.1705 H       1  UNL1        0.0580
     35 H          14.4846    6.0795    5.0351 H       1  UNL1        0.2095
@<TRIPOS>BOND
     1     1     2    1
     2     2     3    1
     3     3     4    1
     4     4     5    1
     5     5     6    1
     6     6     7    1
     7     7     8    1
     8     8     9    1
     9     9    10    1
    10    10    11    1
    11    11    12    1
    12    12    13    1
    13    13    14    1
    14     1    15    1
    15     1    16    1
    16     1    17    1
    17     2    18    1
    18     3    19    1
    19     3    20    1
    20     4    21    1
    21     4    22    1
    22     6    23    1
    23     6    24    1
    24     7    25    1
    25     7    26    1
    26     9    27    1
    27     9    28    1
    28    10    29    1
    29    10    30    1
    30    12    31    1
    31    12    32    1
    32    13    33    1
    33    13    34    1
    34    14    35    1
