@<TRIPOS>MOLECULE
*****
 46 46 0 0 0
SMALL
GASTEIGER

@<TRIPOS>ATOM
      1 C           1.0461    0.0887   -0.0006 C.3     1  UNL1       -0.0416
      2 C           2.5661    0.0887   -0.0006 C.3     1  UNL1        0.0449
      3 O           3.0394   -0.8039    0.9971 O.3     1  UNL1       -0.3778
      4 C           4.4594   -0.8039    0.9971 C.3     1  UNL1        0.0710
      5 C           4.9661   -1.7595    2.0651 C.3     1  UNL1        0.0711
      6 O           6.3861   -1.7595    2.0651 O.3     1  UNL1       -0.3752
      7 C           6.8594   -2.6522    3.0629 C.3     1  UNL1        0.0711
      8 C           8.3794   -2.6522    3.0629 C.3     1  UNL1        0.0710
      9 O           8.8528   -3.5448    4.0606 O.3     1  UNL1       -0.3770
     10 C          10.2728   -3.5448    4.0606 C.3     1  UNL1        0.0560
     11 C          10.7794   -4.5004    5.1286 C.3     1  UNL1        0.0476
     12 C          12.2994   -4.5004    5.1286 C.2     1  UNL1        0.2178
     13 O          12.9349   -3.7665    4.3084 O.2     1  UNL1       -0.2755
     14 N          13.0344   -5.3492    6.0774 N.am    1  UNL1       -0.3014
     15 C          14.5044   -5.3492    6.0774 C.3     1  UNL1        0.0147
     16 C          15.0111   -6.3048    7.1454 C.3     1  UNL1       -0.0371
     17 C          16.5311   -6.3048    7.1454 C.3     1  UNL1       -0.0502
     18 C          17.0377   -7.2603    8.2134 C.3     1  UNL1       -0.0371
     19 C          12.2994   -6.1981    7.0261 C.3     1  UNL1        0.0147
     20 H           0.6894    0.7614   -0.7524 H       1  UNL1        0.0252
     21 H           0.6894    0.4035    0.9578 H       1  UNL1        0.0252
     22 H           0.6894   -0.8987   -0.2072 H       1  UNL1        0.0252
     23 H           2.9228    1.0762    0.2060 H       1  UNL1        0.0557
     24 H           2.9228   -0.2260   -0.9591 H       1  UNL1        0.0557
     25 H           4.8161    0.1835    1.2037 H       1  UNL1        0.0583
     26 H           4.8161   -1.1187    0.0387 H       1  UNL1        0.0583
     27 H           4.6094   -2.7469    1.8585 H       1  UNL1        0.0583
     28 H           4.6094   -1.4447    3.0236 H       1  UNL1        0.0583
     29 H           6.5028   -3.6396    2.8562 H       1  UNL1        0.0583
     30 H           6.5028   -2.3374    4.0213 H       1  UNL1        0.0583
     31 H           8.7361   -1.6647    3.2695 H       1  UNL1        0.0583
     32 H           8.7361   -2.9669    2.1044 H       1  UNL1        0.0583
     33 H          10.6294   -2.5574    4.2672 H       1  UNL1        0.0564
     34 H          10.6294   -3.8596    3.1022 H       1  UNL1        0.0564
     35 H          10.4227   -5.4878    4.9220 H       1  UNL1        0.0381
     36 H          10.4227   -4.1856    6.0870 H       1  UNL1        0.0381
     37 H          14.8611   -4.3618    6.2840 H       1  UNL1        0.0464
     38 H          14.8611   -5.6640    5.1189 H       1  UNL1        0.0464
     39 H          14.6544   -7.2922    6.9387 H       1  UNL1        0.0280
     40 H          14.6544   -5.9900    8.1038 H       1  UNL1        0.0280
     41 H          16.8877   -5.3174    7.3520 H       1  UNL1        0.0266
     42 H          16.8877   -6.6195    6.1869 H       1  UNL1        0.0266
     43 H          17.4779   -6.8982    9.1189 H       1  UNL1        0.0280
     44 H          17.6715   -8.1197    8.2817 H       1  UNL1        0.0280
     45 H          11.7216   -5.6926    7.7714 H       1  UNL1        0.0464
     46 H          11.5335   -6.9045    6.7826 H       1  UNL1        0.0464
@<TRIPOS>BOND
     1     1     2    1
     2     2     3    1
     3     3     4    1
     4     4     5    1
     5     5     6    1
     6     6     7    1
     7     7     8    1
     8     8     9    1
     9     9    10    1
    10    10    11    1
    11    11    12    1
    12    12    13    2
    13    12    14   am
    14    14    15    1
    15    15    16    1
    16    16    17    1
    17    17    18    1
    18    18    19    1
    19    14    19    1
    20     1    20    1
    21     1    21    1
    22     1    22    1
    23     2    23    1
    24     2    24    1
    25     4    25    1
    26     4    26    1
    27     5    27    1
    28     5    28    1
    29     7    29    1
    30     7    30    1
    31     8    31    1
    32     8    32    1
    33    10    33    1
    34    10    34    1
    35    11    35    1
    36    11    36    1
    37    15    37    1
    38    15    38    1
    39    16    39    1
    40    16    40    1
    41    17    41    1
    42    17    42    1
    43    18    43    1
    44    18    44    1
    45    19    45    1
    46    19    46    1
