@<TRIPOS>MOLECULE
*****
 39 38 0 0 0
SMALL
GASTEIGER

@<TRIPOS>ATOM
      1 C           1.0653    0.0607   -0.0453 C.3     1  UNL1       -0.0653
      2 C           2.5853    0.0607   -0.0453 C.3     1  UNL1       -0.0559
      3 C           3.0919   -1.2158    0.6061 C.3     1  UNL1       -0.0533
      4 C           4.6119   -1.2158    0.6061 C.3     1  UNL1       -0.0531
      5 C           5.1186   -2.4923    1.2574 C.3     1  UNL1       -0.0531
      6 C           6.6386   -2.4923    1.2574 C.3     1  UNL1       -0.0530
      7 C           7.1453   -3.7688    1.9087 C.3     1  UNL1       -0.0526
      8 C           8.6653   -3.7688    1.9087 C.3     1  UNL1       -0.0448
      9 C           9.1719   -5.0453    2.5601 C.3     1  UNL1        0.0240
     10 C          10.6919   -5.0453    2.5601 C.2     1  UNL1        0.2130
     11 O          11.3274   -4.0649    2.0598 O.2     1  UNL1       -0.2758
     12 N          11.4269   -6.1792    3.1387 N.am    1  UNL1       -0.3156
     13 C          12.8969   -6.1792    3.1387 C.3     1  UNL1        0.0088
     14 C          13.4036   -7.4557    3.7900 C.3     1  UNL1       -0.0495
     15 H           0.7086    0.9593   -0.5038 H       1  UNL1        0.0230
     16 H           0.7086    0.0085    0.9622 H       1  UNL1        0.0230
     17 H           0.7086   -0.7856   -0.5942 H       1  UNL1        0.0230
     18 H           2.9419    0.9071    0.5037 H       1  UNL1        0.0263
     19 H           2.9419    0.1130   -1.0527 H       1  UNL1        0.0263
     20 H           2.7353   -2.0621    0.0571 H       1  UNL1        0.0265
     21 H           2.7353   -1.2680    1.6135 H       1  UNL1        0.0265
     22 H           4.9686   -0.3694    1.1550 H       1  UNL1        0.0265
     23 H           4.9686   -1.1635   -0.4014 H       1  UNL1        0.0265
     24 H           4.7619   -3.3386    0.7085 H       1  UNL1        0.0265
     25 H           4.7619   -2.5445    2.2649 H       1  UNL1        0.0265
     26 H           6.9953   -1.6459    1.8063 H       1  UNL1        0.0265
     27 H           6.9953   -2.4400    0.2499 H       1  UNL1        0.0265
     28 H           6.7886   -4.6151    1.3598 H       1  UNL1        0.0265
     29 H           6.7886   -3.8210    2.9162 H       1  UNL1        0.0265
     30 H           9.0219   -2.9224    2.4577 H       1  UNL1        0.0270
     31 H           9.0219   -3.7165    0.9013 H       1  UNL1        0.0270
     32 H           8.8153   -5.8916    2.0111 H       1  UNL1        0.0358
     33 H           8.8153   -5.0975    3.5675 H       1  UNL1        0.0358
     34 H          10.9347   -6.9387    3.5262 H       1  UNL1        0.1487
     35 H          13.2536   -5.3329    3.6876 H       1  UNL1        0.0459
     36 H          13.2536   -6.1270    2.1312 H       1  UNL1        0.0459
     37 H          13.0469   -7.5079    4.7975 H       1  UNL1        0.0245
     38 H          14.4736   -7.4557    3.7900 H       1  UNL1        0.0245
     39 H          13.0469   -8.3021    3.2411 H       1  UNL1        0.0245
@<TRIPOS>BOND
     1     1     2    1
     2     2     3    1
     3     3     4    1
     4     4     5    1
     5     5     6    1
     6     6     7    1
     7     7     8    1
     8     8     9    1
     9     9    10    1
    10    10    11    2
    11    10    12   am
    12    12    13    1
    13    13    14    1
    14     1    15    1
    15     1    16    1
    16     1    17    1
    17     2    18    1
    18     2    19    1
    19     3    20    1
    20     3    21    1
    21     4    22    1
    22     4    23    1
    23     5    24    1
    24     5    25    1
    25     6    26    1
    26     6    27    1
    27     7    28    1
    28     7    29    1
    29     8    30    1
    30     8    31    1
    31     9    32    1
    32     9    33    1
    33    12    34    1
    34    13    35    1
    35    13    36    1
    36    14    37    1
    37    14    38    1
    38    14    39    1
