@<TRIPOS>MOLECULE
*****
 37 37 0 0 0
SMALL
GASTEIGER

@<TRIPOS>ATOM
      1 N           1.0792   -0.0480   -0.0377 N.3     1  UNL1       -0.3279
      2 C           2.5492   -0.0480   -0.0377 C.3     1  UNL1        0.0166
      3 C           3.0559    1.3528    0.2647 C.3     1  UNL1        0.0600
      4 O           4.4759    1.3528    0.2647 O.3     1  UNL1       -0.3763
      5 C           4.9492    2.6615    0.5472 C.3     1  UNL1        0.0711
      6 C           6.4692    2.6615    0.5472 C.3     1  UNL1        0.0711
      7 O           6.9425    3.9701    0.8297 O.3     1  UNL1       -0.3752
      8 C           8.3625    3.9701    0.8297 C.3     1  UNL1        0.0711
      9 C           8.8692    5.3709    1.1321 C.3     1  UNL1        0.0711
     10 O          10.2892    5.3709    1.1321 O.3     1  UNL1       -0.3757
     11 C          10.7625    6.6795    1.4146 C.3     1  UNL1        0.0673
     12 C          12.2825    6.6795    1.4146 C.3     1  UNL1        0.0665
     13 N          12.7725    8.0343    1.7070 N.ar    1  UNL1       -0.2495
     14 C          14.1419    8.2831    1.7607 C.ar    1  UNL1        0.0455
     15 C          14.6219    9.6103    2.0472 C.ar    1  UNL1        0.0693
     16 N          15.9913    9.8591    2.1009 N.ar    1  UNL1       -0.1380
     17 N          11.8982    9.0339    1.9228 N.ar    1  UNL1       -0.0657
     18 H           0.7392   -0.9880   -0.2407 H       1  UNL1        0.1183
     19 H           0.7392    0.5977   -0.7503 H       1  UNL1        0.1183
     20 H           2.9059   -0.3567   -0.9981 H       1  UNL1        0.0444
     21 H           2.9059   -0.7254    0.7098 H       1  UNL1        0.0444
     22 H           2.6992    1.6615    1.2251 H       1  UNL1        0.0572
     23 H           2.6992    2.0302   -0.4829 H       1  UNL1        0.0572
     24 H           4.5925    2.9701    1.5076 H       1  UNL1        0.0583
     25 H           4.5925    3.3389   -0.2004 H       1  UNL1        0.0583
     26 H           6.8259    2.3528   -0.4132 H       1  UNL1        0.0583
     27 H           6.8259    1.9841    1.2947 H       1  UNL1        0.0583
     28 H           8.7192    3.6614   -0.1307 H       1  UNL1        0.0583
     29 H           8.7192    3.2927    1.5772 H       1  UNL1        0.0583
     30 H           8.5125    5.6796    2.0925 H       1  UNL1        0.0583
     31 H           8.5125    6.0483    0.3845 H       1  UNL1        0.0583
     32 H          10.4058    6.9882    2.3750 H       1  UNL1        0.0578
     33 H          10.4058    7.3569    0.6670 H       1  UNL1        0.0578
     34 H          12.6392    6.3709    0.4541 H       1  UNL1        0.0532
     35 H          12.6392    6.0022    2.1621 H       1  UNL1        0.0532
     36 H          14.8125    7.5163    1.5952 H       1  UNL1        0.0842
     37 H          13.9513   10.3771    2.2128 H       1  UNL1        0.0864
@<TRIPOS>BOND
     1     1     2    1
     2     2     3    1
     3     3     4    1
     4     4     5    1
     5     5     6    1
     6     6     7    1
     7     7     8    1
     8     8     9    1
     9     9    10    1
    10    10    11    1
    11    11    12    1
    12    12    13    1
    13    13    14   ar
    14    14    15   ar
    15    15    16   ar
    16    16    17   ar
    17    13    17   ar
    18     1    18    1
    19     1    19    1
    20     2    20    1
    21     2    21    1
    22     3    22    1
    23     3    23    1
    24     5    24    1
    25     5    25    1
    26     6    26    1
    27     6    27    1
    28     8    28    1
    29     8    29    1
    30     9    30    1
    31     9    31    1
    32    11    32    1
    33    11    33    1
    34    12    34    1
    35    12    35    1
    36    14    36    1
    37    15    37    1
