@<TRIPOS>MOLECULE
*****
 32 31 0 0 0
SMALL
GASTEIGER

@<TRIPOS>ATOM
      1 N           1.0479    0.0761   -0.0437 N.3     1  UNL1       -0.3279
      2 C           2.5179    0.0761   -0.0437 C.3     1  UNL1        0.0166
      3 C           3.0246    1.2014   -0.9310 C.3     1  UNL1        0.0600
      4 O           4.4446    1.2014   -0.9310 O.3     1  UNL1       -0.3763
      5 C           4.9179    2.2527   -1.7600 C.3     1  UNL1        0.0711
      6 C           6.4379    2.2527   -1.7600 C.3     1  UNL1        0.0711
      7 O           6.9113    3.3040   -2.5890 O.3     1  UNL1       -0.3752
      8 C           8.3313    3.3040   -2.5890 C.3     1  UNL1        0.0711
      9 C           8.8379    4.4293   -3.4763 C.3     1  UNL1        0.0711
     10 O          10.2579    4.4293   -3.4763 O.3     1  UNL1       -0.3752
     11 C          10.7313    5.4806   -4.3053 C.3     1  UNL1        0.0708
     12 C          12.2513    5.4806   -4.3053 C.3     1  UNL1        0.0676
     13 O          12.7246    6.5318   -5.1342 O.3     1  UNL1       -0.3927
     14 H           0.7080   -0.6790    0.5518 H       1  UNL1        0.1183
     15 H           0.7079   -0.0620   -0.9954 H       1  UNL1        0.1183
     16 H           2.8746   -0.8609   -0.4174 H       1  UNL1        0.0444
     17 H           2.8746    0.2210    0.9547 H       1  UNL1        0.0444
     18 H           2.6679    2.1384   -0.5573 H       1  UNL1        0.0572
     19 H           2.6679    1.0565   -1.9294 H       1  UNL1        0.0572
     20 H           4.5613    3.1897   -1.3863 H       1  UNL1        0.0583
     21 H           4.5613    2.1078   -2.7583 H       1  UNL1        0.0583
     22 H           6.7946    1.3157   -2.1337 H       1  UNL1        0.0583
     23 H           6.7946    2.3976   -0.7616 H       1  UNL1        0.0583
     24 H           8.6879    2.3669   -2.9627 H       1  UNL1        0.0583
     25 H           8.6879    3.4488   -1.5906 H       1  UNL1        0.0583
     26 H           8.4813    5.3663   -3.1026 H       1  UNL1        0.0583
     27 H           8.4813    4.2844   -4.4746 H       1  UNL1        0.0583
     28 H          10.3746    6.4176   -3.9316 H       1  UNL1        0.0583
     29 H          10.3746    5.3357   -5.3036 H       1  UNL1        0.0583
     30 H          12.6079    4.5435   -4.6790 H       1  UNL1        0.0580
     31 H          12.6079    5.6254   -3.3069 H       1  UNL1        0.0580
     32 H          12.4012    6.4005   -6.0393 H       1  UNL1        0.2095
@<TRIPOS>BOND
     1     1     2    1
     2     2     3    1
     3     3     4    1
     4     4     5    1
     5     5     6    1
     6     6     7    1
     7     7     8    1
     8     8     9    1
     9     9    10    1
    10    10    11    1
    11    11    12    1
    12    12    13    1
    13     1    14    1
    14     1    15    1
    15     2    16    1
    16     2    17    1
    17     3    18    1
    18     3    19    1
    19     5    20    1
    20     5    21    1
    21     6    22    1
    22     6    23    1
    23     8    24    1
    24     8    25    1
    25     9    26    1
    26     9    27    1
    27    11    28    1
    28    11    29    1
    29    12    30    1
    30    12    31    1
    31    13    32    1
