@<TRIPOS>MOLECULE
*****
 31 32 0 0 0
SMALL
GASTEIGER

@<TRIPOS>ATOM
      1 C           1.0761   -0.0279   -0.0585 C.3     1  UNL1       -0.0027
      2 C           2.5961   -0.0279   -0.0585 C.3     1  UNL1       -0.0247
      3 C           3.1028    0.7250   -1.2779 C.3     1  UNL1        0.0128
      4 N           2.6128    2.1104   -1.2369 N.3     1  UNL1       -0.2969
      5 C           1.1428    2.1104   -1.2369 C.3     1  UNL1        0.0118
      6 C           0.6361    3.5428   -1.1945 C.3     1  UNL1        0.0087
      7 N          -0.8339    3.5428   -1.1945 N.3     1  UNL1       -0.3136
      8 C          -1.3239    4.9281   -1.1535 C.3     1  UNL1        0.0087
      9 C           3.1028    2.8385   -2.4161 C.3     1  UNL1        0.0118
     10 C           4.6228    0.7250   -1.2779 C.3     1  UNL1       -0.0247
     11 C           5.1295    1.4780   -2.4972 C.3     1  UNL1       -0.0027
     12 N           0.5862   -0.7561    1.1207 N.3     1  UNL1       -0.3159
     13 H           0.7195   -0.5062   -0.9467 H       1  UNL1        0.0424
     14 H           0.7195    0.9805   -0.0287 H       1  UNL1        0.0424
     15 H           2.9528   -1.0363   -0.0884 H       1  UNL1        0.0293
     16 H           2.9528    0.4504    0.8297 H       1  UNL1        0.0293
     17 H           2.7461    0.2467   -2.1660 H       1  UNL1        0.0463
     18 H           0.7861    1.5803   -0.3785 H       1  UNL1        0.0439
     19 H           0.7861    1.6320   -2.1250 H       1  UNL1        0.0439
     20 H           0.9928    4.0728   -2.0528 H       1  UNL1        0.0437
     21 H           0.9928    4.0211   -0.3063 H       1  UNL1        0.0437
     22 H          -1.1739    3.0375   -0.3762 H       1  UNL1        0.1220
     23 H          -1.4607    5.4548   -0.2322 H       1  UNL1        0.0437
     24 H          -2.0942    5.5435   -1.5692 H       1  UNL1        0.0437
     25 H           3.9835    3.4349   -2.2997 H       1  UNL1        0.0439
     26 H           3.4174    2.4509   -3.3625 H       1  UNL1        0.0439
     27 H           4.9795   -0.2833   -1.3077 H       1  UNL1        0.0293
     28 H           4.9795    1.2034   -0.3897 H       1  UNL1        0.0293
     29 H           5.4676    1.0063   -3.3961 H       1  UNL1        0.0424
     30 H           5.6321    2.3490   -2.8627 H       1  UNL1        0.0424
     31 H           0.2638   -0.3064    1.9776 H       1  UNL1        0.1219
@<TRIPOS>BOND
     1     1     2    1
     2     2     3    1
     3     3     4    1
     4     4     5    1
     5     5     6    1
     6     6     7    1
     7     7     8    1
     8     8     9    1
     9     4     9    1
    10     3    10    1
    11    10    11    1
    12    11    12    1
    13     1    12    1
    14     1    13    1
    15     1    14    1
    16     2    15    1
    17     2    16    1
    18     3    17    1
    19     5    18    1
    20     5    19    1
    21     6    20    1
    22     6    21    1
    23     7    22    1
    24     8    23    1
    25     8    24    1
    26     9    25    1
    27     9    26    1
    28    10    27    1
    29    10    28    1
    30    11    29    1
    31    11    30    1
    32    12    31    1
