@<TRIPOS>MOLECULE
*****
 40 41 0 0 0
SMALL
GASTEIGER

@<TRIPOS>ATOM
      1 C           1.0781    0.0624    0.0029 C.3     1  UNL1       -0.0130
      2 N           2.5481    0.0624    0.0029 N.3     1  UNL1       -0.3081
      3 C           3.0381    0.2311   -1.3727 C.3     1  UNL1       -0.0130
      4 C           3.0381    1.1694    0.8368 C.3     1  UNL1        0.0012
      5 C           4.5581    1.1694    0.8368 C.3     1  UNL1       -0.0254
      6 C           5.0647    2.3141    1.6990 C.3     1  UNL1       -0.0331
      7 C           6.5847    2.3141    1.6990 C.3     1  UNL1        0.0153
      8 N           7.0747    3.4211    2.5329 N.am    1  UNL1       -0.2975
      9 C           6.1195    4.3136    3.2051 C.2     1  UNL1        0.2466
     10 O           6.5431    5.2707    3.9260 O.2     1  UNL1       -0.2700
     11 C           4.6251    4.0917    3.0380 C.ar    1  UNL1        0.0369
     12 C           3.6892    4.9661    3.6966 C.ar    1  UNL1       -0.0496
     13 C           2.2732    4.7559    3.5383 C.ar    1  UNL1       -0.0610
     14 C           1.3373    5.6302    4.1969 C.ar    1  UNL1       -0.0617
     15 C          -0.0786    5.4200    4.0385 C.ar    1  UNL1       -0.0610
     16 C           4.1450    3.0072    2.2210 C.ar    1  UNL1       -0.0496
     17 C           8.5200    3.6357    2.6945 C.3     1  UNL1        0.0153
     18 C           5.0647    1.3438   -0.5856 C.3     1  UNL1       -0.0331
     19 H           0.7214   -0.7434   -0.6040 H       1  UNL1        0.0391
     20 H           0.7214    0.9910   -0.3914 H       1  UNL1        0.0391
     21 H           0.7214   -0.0603    1.0042 H       1  UNL1        0.0391
     22 H           2.6814   -0.5747   -1.9797 H       1  UNL1        0.0391
     23 H           4.1081    0.2311   -1.3727 H       1  UNL1        0.0391
     24 H           2.6814    1.1596   -1.7671 H       1  UNL1        0.0391
     25 H           2.6814    1.0467    1.8381 H       1  UNL1        0.0429
     26 H           2.6814    2.0980    0.4424 H       1  UNL1        0.0429
     27 H           4.9147    0.2409    1.2311 H       1  UNL1        0.0314
     28 H           4.7081    2.1914    2.7003 H       1  UNL1        0.0283
     29 H           4.7081    3.2426    1.3046 H       1  UNL1        0.0283
     30 H           6.9414    2.4369    0.6977 H       1  UNL1        0.0465
     31 H           6.9414    1.3856    2.0933 H       1  UNL1        0.0465
     32 H           4.0332    5.7433    4.2820 H       1  UNL1        0.0625
     33 H           1.9292    3.9787    2.9529 H       1  UNL1        0.0618
     34 H           1.6813    6.4074    4.7823 H       1  UNL1        0.0618
     35 H          -1.0861    5.5988    4.1732 H       1  UNL1        0.0618
     36 H           4.4549    2.2209    1.6288 H       1  UNL1        0.0625
     37 H           9.1159    3.0832    3.3905 H       1  UNL1        0.0465
     38 H           9.2699    4.3968    2.7500 H       1  UNL1        0.0465
     39 H           5.3813    0.4694   -1.1150 H       1  UNL1        0.0283
     40 H           4.5671    1.7464   -1.4431 H       1  UNL1        0.0283
@<TRIPOS>BOND
     1     1     2    1
     2     2     3    1
     3     2     4    1
     4     4     5    1
     5     5     6    1
     6     6     7    1
     7     7     8    1
     8     8     9   am
     9     9    10    2
    10     9    11    1
    11    11    12   ar
    12    12    13   ar
    13    13    14   ar
    14    14    15   ar
    15    15    16   ar
    16    11    16   ar
    17     8    17    1
    18    17    18    1
    19     5    18    1
    20     1    19    1
    21     1    20    1
    22     1    21    1
    23     3    22    1
    24     3    23    1
    25     3    24    1
    26     4    25    1
    27     4    26    1
    28     5    27    1
    29     6    28    1
    30     6    29    1
    31     7    30    1
    32     7    31    1
    33    12    32    1
    34    13    33    1
    35    14    34    1
    36    15    35    1
    37    16    36    1
    38    17    37    1
    39    17    38    1
    40    18    39    1
    41    18    40    1
