@<TRIPOS>MOLECULE
*****
 69 70 0 0 0
SMALL
GASTEIGER

@<TRIPOS>ATOM
      1 C           1.0404    0.0234    0.0885 C.3     1  UNL1       -0.0653
      2 C           2.5604    0.0234    0.0885 C.3     1  UNL1       -0.0559
      3 C           3.0670   -0.7403   -1.1242 C.3     1  UNL1       -0.0533
      4 C           4.5870   -0.7403   -1.1242 C.3     1  UNL1       -0.0526
      5 C           5.0937   -1.5039   -2.3369 C.3     1  UNL1       -0.0447
      6 C           6.6137   -1.5039   -2.3369 C.3     1  UNL1        0.0256
      7 C           7.1203   -2.2676   -3.5495 C.2     1  UNL1        0.2322
      8 O           6.2945   -2.7823   -4.3669 O.2     1  UNL1       -0.2741
      9 N           8.5656   -2.4107   -3.7768 N.am    1  UNL1       -0.2070
     10 N           9.0389   -3.1241   -4.9097 N.2     1  UNL1       -0.1877
     11 C          10.3324   -3.2522   -5.1132 C.2     1  UNL1        0.0528
     12 C          10.8391   -4.0158   -6.3258 C.ar    1  UNL1       -0.0052
     13 C          12.2550   -4.1561   -6.5485 C.ar    1  UNL1       -0.0496
     14 C          12.7351   -4.8796   -7.6975 C.ar    1  UNL1       -0.0193
     15 C          14.1510   -5.0199   -7.9202 C.ar    1  UNL1        0.1206
     16 O          15.0738   -4.4447   -7.0069 O.3     1  UNL1       -0.4897
     17 C          14.6005   -3.7313   -5.8740 C.3     1  UNL1        0.1128
     18 C          15.7827   -3.2222   -5.0656 C.3     1  UNL1        0.0818
     19 O          15.3094   -2.5088   -3.9327 O.3     1  UNL1       -0.3742
     20 C          16.4138   -2.0333   -3.1774 C.3     1  UNL1        0.0711
     21 C          15.9072   -1.2696   -1.9648 C.3     1  UNL1        0.0711
     22 O          17.0116   -0.7940   -1.2095 O.3     1  UNL1       -0.3757
     23 C          16.5383   -0.0806   -0.0767 C.3     1  UNL1        0.0673
     24 C          17.7205    0.4285    0.7318 C.3     1  UNL1        0.0665
     25 N          17.2305    1.1670    1.9046 N.ar    1  UNL1       -0.2492
     26 C          18.1356    1.7311    2.8004 C.ar    1  UNL1        0.0500
     27 C          17.6556    2.4546    3.9494 C.ar    1  UNL1        0.0963
     28 C          16.1612    2.6027    4.1844 C.3     1  UNL1        0.0393
     29 N          15.4262    1.9243    3.1072 N.3     1  UNL1       -0.3248
     30 N          18.5607    3.0188    4.8452 N.ar    1  UNL1       -0.1332
     31 N          15.9077    1.2980    2.1126 N.ar    1  UNL1       -0.0653
     32 C          14.6311   -5.7434   -9.0692 C.ar    1  UNL1       -0.0193
     33 C           9.9032   -4.5992   -7.2521 C.ar    1  UNL1       -0.0496
     34 H           0.6837    0.5609    0.9421 H       1  UNL1        0.0230
     35 H           0.6837   -0.9847    0.1272 H       1  UNL1        0.0230
     36 H           0.6837    0.4939   -0.8039 H       1  UNL1        0.0230
     37 H           2.9170   -0.4472    0.9808 H       1  UNL1        0.0263
     38 H           2.9170    1.0314    0.0497 H       1  UNL1        0.0263
     39 H           2.7104   -0.2698   -2.0166 H       1  UNL1        0.0265
     40 H           2.7104   -1.7483   -1.0855 H       1  UNL1        0.0265
     41 H           4.9437   -1.2108   -0.2318 H       1  UNL1        0.0265
     42 H           4.9437    0.2678   -1.1629 H       1  UNL1        0.0265
     43 H           4.7370   -1.0334   -3.2292 H       1  UNL1        0.0270
     44 H           4.7370   -2.5120   -2.2981 H       1  UNL1        0.0270
     45 H           6.9704   -1.9744   -1.4445 H       1  UNL1        0.0359
     46 H           6.9704   -0.4959   -2.3756 H       1  UNL1        0.0359
     47 H           9.2054   -2.0120   -3.1436 H       1  UNL1        0.1772
     48 H          11.0030   -2.8342   -4.4494 H       1  UNL1        0.0851
     49 H          12.9257   -3.7381   -5.8848 H       1  UNL1        0.0625
     50 H          12.0645   -5.2976   -8.3613 H       1  UNL1        0.0654
     51 H          14.0060   -4.3810   -5.2662 H       1  UNL1        0.0720
     52 H          14.0060   -2.9025   -6.1973 H       1  UNL1        0.0720
     53 H          16.3772   -2.5726   -5.6734 H       1  UNL1        0.0594
     54 H          16.3772   -4.0511   -4.7423 H       1  UNL1        0.0594
     55 H          17.0083   -1.3836   -3.7853 H       1  UNL1        0.0583
     56 H          17.0083   -2.8621   -2.8542 H       1  UNL1        0.0583
     57 H          15.3127   -1.9193   -1.3570 H       1  UNL1        0.0583
     58 H          15.3127   -0.4407   -2.2880 H       1  UNL1        0.0583
     59 H          15.9438   -0.7303    0.5312 H       1  UNL1        0.0578
     60 H          15.9438    0.7483   -0.3999 H       1  UNL1        0.0578
     61 H          18.3150    1.0781    0.1240 H       1  UNL1        0.0532
     62 H          18.3150   -0.4004    1.0550 H       1  UNL1        0.0532
     63 H          19.1503    1.6306    2.6408 H       1  UNL1        0.0846
     64 H          15.9027    3.6409    4.1937 H       1  UNL1        0.0488
     65 H          15.9027    2.1624    5.1247 H       1  UNL1        0.0488
     66 H          15.6726    2.3440    2.2108 H       1  UNL1        0.1186
     67 H          14.4233    2.0236    3.2649 H       1  UNL1        0.1186
     68 H          15.3286   -6.1487   -9.7128 H       1  UNL1        0.0654
     69 H           8.8957   -4.7184   -7.4415 H       1  UNL1        0.0625
@<TRIPOS>BOND
     1     1     2    1
     2     2     3    1
     3     3     4    1
     4     4     5    1
     5     5     6    1
     6     6     7    1
     7     7     8    2
     8     7     9   am
     9     9    10    1
    10    10    11    2
    11    11    12    1
    12    12    13   ar
    13    13    14   ar
    14    14    15   ar
    15    15    16    1
    16    16    17    1
    17    17    18    1
    18    18    19    1
    19    19    20    1
    20    20    21    1
    21    21    22    1
    22    22    23    1
    23    23    24    1
    24    24    25    1
    25    25    26   ar
    26    26    27   ar
    27    27    28    1
    28    28    29    1
    29    27    30   ar
    30    30    31   ar
    31    25    31   ar
    32    15    32   ar
    33    32    33   ar
    34    12    33   ar
    35     1    34    1
    36     1    35    1
    37     1    36    1
    38     2    37    1
    39     2    38    1
    40     3    39    1
    41     3    40    1
    42     4    41    1
    43     4    42    1
    44     5    43    1
    45     5    44    1
    46     6    45    1
    47     6    46    1
    48     9    47    1
    49    11    48    1
    50    13    49    1
    51    14    50    1
    52    17    51    1
    53    17    52    1
    54    18    53    1
    55    18    54    1
    56    20    55    1
    57    20    56    1
    58    21    57    1
    59    21    58    1
    60    23    59    1
    61    23    60    1
    62    24    61    1
    63    24    62    1
    64    26    63    1
    65    28    64    1
    66    28    65    1
    67    29    66    1
    68    29    67    1
    69    32    68    1
    70    33    69    1
