@<TRIPOS>MOLECULE
*****
 35 34 0 0 0
SMALL
GASTEIGER

@<TRIPOS>ATOM
      1 C           1.0509   -0.0442   -0.0738 C.3     1  UNL1       -0.0652
      2 C           2.5709   -0.0442   -0.0738 C.3     1  UNL1       -0.0538
      3 C           3.0776   -1.2370   -0.8681 C.3     1  UNL1       -0.0297
      4 C           4.5976   -1.2370   -0.8681 C.3     1  UNL1        0.0477
      5 O           5.0709   -2.3514   -1.6101 O.3     1  UNL1       -0.3798
      6 C           6.4909   -2.3514   -1.6101 C.3     1  UNL1        0.0477
      7 C           6.9976   -3.5442   -2.4044 C.3     1  UNL1       -0.0274
      8 C           8.5176   -3.5442   -2.4044 C.3     1  UNL1       -0.0274
      9 C           9.0242   -4.7370   -3.1987 C.3     1  UNL1        0.0484
     10 O          10.4442   -4.7370   -3.1987 O.3     1  UNL1       -0.3706
     11 C          10.9176   -5.8514   -3.9407 C.3     1  UNL1        0.1234
     12 C          12.4376   -5.8514   -3.9407 C.2     1  UNL1        0.2363
     13 N          13.1726   -4.7918   -3.2351 N.am    1  UNL1       -0.3274
     14 O          13.0730   -6.7675   -4.5507 O.2     1  UNL1       -0.2735
     15 H           0.6943    0.7955    0.4853 H       1  UNL1        0.0230
     16 H           0.6943   -0.9483    0.3738 H       1  UNL1        0.0230
     17 H           0.6943    0.0202   -1.0806 H       1  UNL1        0.0230
     18 H           2.9276   -0.1086    0.9329 H       1  UNL1        0.0263
     19 H           2.9276    0.8599   -0.5215 H       1  UNL1        0.0263
     20 H           2.7209   -1.1727   -1.8749 H       1  UNL1        0.0287
     21 H           2.7209   -2.1411   -0.4205 H       1  UNL1        0.0287
     22 H           4.9542   -1.3014    0.1386 H       1  UNL1        0.0560
     23 H           4.9543   -0.3330   -1.3157 H       1  UNL1        0.0560
     24 H           6.8476   -2.4158   -0.6034 H       1  UNL1        0.0560
     25 H           6.8476   -1.4473   -2.0577 H       1  UNL1        0.0560
     26 H           6.6409   -3.4798   -3.4111 H       1  UNL1        0.0288
     27 H           6.6409   -4.4483   -1.9568 H       1  UNL1        0.0288
     28 H           8.8742   -3.6086   -1.3976 H       1  UNL1        0.0288
     29 H           8.8742   -2.6402   -2.8520 H       1  UNL1        0.0288
     30 H           8.6676   -4.6727   -4.2054 H       1  UNL1        0.0560
     31 H           8.6676   -5.6411   -2.7510 H       1  UNL1        0.0560
     32 H          10.5609   -5.7870   -4.9474 H       1  UNL1        0.0656
     33 H          10.5609   -6.7554   -3.4930 H       1  UNL1        0.0656
     34 H          12.6803   -4.0821   -2.7625 H       1  UNL1        0.1450
     35 H          14.1571   -4.7918   -3.2351 H       1  UNL1        0.1450
@<TRIPOS>BOND
     1     1     2    1
     2     2     3    1
     3     3     4    1
     4     4     5    1
     5     5     6    1
     6     6     7    1
     7     7     8    1
     8     8     9    1
     9     9    10    1
    10    10    11    1
    11    11    12    1
    12    12    13   am
    13    12    14    2
    14     1    15    1
    15     1    16    1
    16     1    17    1
    17     2    18    1
    18     2    19    1
    19     3    20    1
    20     3    21    1
    21     4    22    1
    22     4    23    1
    23     6    24    1
    24     6    25    1
    25     7    26    1
    26     7    27    1
    27     8    28    1
    28     8    29    1
    29     9    30    1
    30     9    31    1
    31    11    32    1
    32    11    33    1
    33    13    34    1
    34    13    35    1
