@<TRIPOS>MOLECULE
*****
 40 39 0 0 0
SMALL
GASTEIGER

@<TRIPOS>ATOM
      1 C           0.9274    0.0196    0.0659 C.3     1  UNL1       -0.0570
      2 C           2.4474    0.0196    0.0659 C.3     1  UNL1        0.0211
      3 C           2.9541    0.8880   -1.0741 C.2     1  UNL1        0.2128
      4 O           2.1282    1.4733   -1.8425 O.2     1  UNL1       -0.2758
      5 N           4.3993    1.0507   -1.2878 N.am    1  UNL1       -0.3131
      6 C           4.8893    1.8905   -2.3903 C.3     1  UNL1        0.0350
      7 C           6.4093    1.8905   -2.3903 C.3     1  UNL1        0.0632
      8 O           6.8826    2.7017   -3.4553 O.3     1  UNL1       -0.3760
      9 C           8.3026    2.7017   -3.4553 C.3     1  UNL1        0.0711
     10 C           8.8093    3.5701   -4.5954 C.3     1  UNL1        0.0711
     11 O          10.2293    3.5701   -4.5954 O.3     1  UNL1       -0.3752
     12 C          10.7026    4.3813   -5.6604 C.3     1  UNL1        0.0711
     13 C          12.2226    4.3813   -5.6604 C.3     1  UNL1        0.0711
     14 O          12.6960    5.1925   -6.7254 O.3     1  UNL1       -0.3752
     15 C          14.1160    5.1925   -6.7254 C.3     1  UNL1        0.0708
     16 C          14.6226    6.0609   -7.8654 C.3     1  UNL1        0.0676
     17 O          16.0426    6.0609   -7.8654 O.3     1  UNL1       -0.3927
     18 H           0.5708   -0.5917    0.8685 H       1  UNL1        0.0234
     19 H           0.5707   -0.3698   -0.8647 H       1  UNL1        0.0234
     20 H           0.5707    1.0202    0.1940 H       1  UNL1        0.0234
     21 H           2.8041   -0.9810   -0.0622 H       1  UNL1        0.0356
     22 H           2.8041    0.4090    0.9966 H       1  UNL1        0.0356
     23 H           5.0391    0.5973   -0.6925 H       1  UNL1        0.1488
     24 H           4.5327    2.8911   -2.2622 H       1  UNL1        0.0484
     25 H           4.5327    1.5011   -3.3209 H       1  UNL1        0.0484
     26 H           6.7660    0.8899   -2.5184 H       1  UNL1        0.0575
     27 H           6.7660    2.2799   -1.4597 H       1  UNL1        0.0575
     28 H           8.6593    1.7011   -3.5835 H       1  UNL1        0.0583
     29 H           8.6593    3.0911   -2.5247 H       1  UNL1        0.0583
     30 H           8.4526    4.5707   -4.4673 H       1  UNL1        0.0583
     31 H           8.4526    3.1807   -5.5260 H       1  UNL1        0.0583
     32 H          10.3460    5.3819   -5.5323 H       1  UNL1        0.0583
     33 H          10.3460    3.9919   -6.5910 H       1  UNL1        0.0583
     34 H          12.5793    3.3807   -5.7885 H       1  UNL1        0.0583
     35 H          12.5793    4.7707   -4.7298 H       1  UNL1        0.0583
     36 H          14.4726    4.1919   -6.8535 H       1  UNL1        0.0583
     37 H          14.4726    5.5819   -5.7948 H       1  UNL1        0.0583
     38 H          14.2660    7.0615   -7.7373 H       1  UNL1        0.0580
     39 H          14.2660    5.6715   -8.7961 H       1  UNL1        0.0580
     40 H          16.3660    6.4138   -7.0218 H       1  UNL1        0.2095
@<TRIPOS>BOND
     1     1     2    1
     2     2     3    1
     3     3     4    2
     4     3     5   am
     5     5     6    1
     6     6     7    1
     7     7     8    1
     8     8     9    1
     9     9    10    1
    10    10    11    1
    11    11    12    1
    12    12    13    1
    13    13    14    1
    14    14    15    1
    15    15    16    1
    16    16    17    1
    17     1    18    1
    18     1    19    1
    19     1    20    1
    20     2    21    1
    21     2    22    1
    22     5    23    1
    23     6    24    1
    24     6    25    1
    25     7    26    1
    26     7    27    1
    27     9    28    1
    28     9    29    1
    29    10    30    1
    30    10    31    1
    31    12    32    1
    32    12    33    1
    33    13    34    1
    34    13    35    1
    35    15    36    1
    36    15    37    1
    37    16    38    1
    38    16    39    1
    39    17    40    1
