@<TRIPOS>MOLECULE
*****
 47 46 0 0 0
SMALL
GASTEIGER

@<TRIPOS>ATOM
      1 C           0.9434    0.0318   -0.0760 C.3     1  UNL1       -0.0416
      2 C           2.4634    0.0318   -0.0760 C.3     1  UNL1        0.0449
      3 O           2.9367   -1.1581    0.5375 O.3     1  UNL1       -0.3778
      4 C           4.3567   -1.1581    0.5375 C.3     1  UNL1        0.0710
      5 C           4.8633   -2.4319    1.1941 C.3     1  UNL1        0.0711
      6 O           6.2833   -2.4319    1.1941 O.3     1  UNL1       -0.3752
      7 C           6.7567   -3.6219    1.8076 C.3     1  UNL1        0.0711
      8 C           8.2767   -3.6219    1.8076 C.3     1  UNL1        0.0711
      9 O           8.7500   -4.8118    2.4211 O.3     1  UNL1       -0.3752
     10 C          10.1700   -4.8118    2.4211 C.3     1  UNL1        0.0711
     11 C          10.6767   -6.0856    3.0777 C.3     1  UNL1        0.0711
     12 O          12.0967   -6.0856    3.0777 O.3     1  UNL1       -0.3752
     13 C          12.5700   -7.2756    3.6912 C.3     1  UNL1        0.0711
     14 C          14.0900   -7.2756    3.6912 C.3     1  UNL1        0.0711
     15 O          14.5633   -8.4655    4.3047 O.3     1  UNL1       -0.3752
     16 C          15.9833   -8.4655    4.3047 C.3     1  UNL1        0.0711
     17 C          16.4900   -9.7393    4.9614 C.3     1  UNL1        0.0706
     18 O          17.9100   -9.7393    4.9614 O.3     1  UNL1       -0.3807
     19 C          18.3833  -10.9293    5.5748 C.3     1  UNL1        0.0365
     20 H           0.5867    0.9285   -0.5383 H       1  UNL1        0.0252
     21 H           0.5867   -0.0162    0.9316 H       1  UNL1        0.0252
     22 H           0.5867   -0.8168   -0.6214 H       1  UNL1        0.0252
     23 H           2.8200    0.8805    0.4694 H       1  UNL1        0.0557
     24 H           2.8200    0.0798   -1.0837 H       1  UNL1        0.0557
     25 H           4.7133   -0.3095    1.0829 H       1  UNL1        0.0583
     26 H           4.7133   -1.1101   -0.4702 H       1  UNL1        0.0583
     27 H           4.5067   -3.2806    0.6487 H       1  UNL1        0.0583
     28 H           4.5067   -2.4799    2.2018 H       1  UNL1        0.0583
     29 H           6.4000   -4.4705    1.2622 H       1  UNL1        0.0583
     30 H           6.4000   -3.6699    2.8153 H       1  UNL1        0.0583
     31 H           8.6333   -2.7732    2.3530 H       1  UNL1        0.0583
     32 H           8.6333   -3.5739    0.7999 H       1  UNL1        0.0583
     33 H          10.5267   -3.9632    2.9665 H       1  UNL1        0.0583
     34 H          10.5267   -4.7638    1.4134 H       1  UNL1        0.0583
     35 H          10.3200   -6.9343    2.5323 H       1  UNL1        0.0583
     36 H          10.3200   -6.1336    4.0854 H       1  UNL1        0.0583
     37 H          12.2133   -8.1242    3.1458 H       1  UNL1        0.0583
     38 H          12.2133   -7.3236    4.6989 H       1  UNL1        0.0583
     39 H          14.4467   -6.4269    4.2366 H       1  UNL1        0.0583
     40 H          14.4467   -7.2276    2.6836 H       1  UNL1        0.0583
     41 H          16.3400   -7.6169    4.8501 H       1  UNL1        0.0583
     42 H          16.3400   -8.4175    3.2970 H       1  UNL1        0.0583
     43 H          16.1333  -10.5880    4.4160 H       1  UNL1        0.0582
     44 H          16.1333   -9.7873    5.9690 H       1  UNL1        0.0582
     45 H          19.4533  -10.9293    5.5748 H       1  UNL1        0.0524
     46 H          18.0266  -11.7779    5.0294 H       1  UNL1        0.0524
     47 H          18.0266  -10.9773    6.5825 H       1  UNL1        0.0524
@<TRIPOS>BOND
     1     1     2    1
     2     2     3    1
     3     3     4    1
     4     4     5    1
     5     5     6    1
     6     6     7    1
     7     7     8    1
     8     8     9    1
     9     9    10    1
    10    10    11    1
    11    11    12    1
    12    12    13    1
    13    13    14    1
    14    14    15    1
    15    15    16    1
    16    16    17    1
    17    17    18    1
    18    18    19    1
    19     1    20    1
    20     1    21    1
    21     1    22    1
    22     2    23    1
    23     2    24    1
    24     4    25    1
    25     4    26    1
    26     5    27    1
    27     5    28    1
    28     7    29    1
    29     7    30    1
    30     8    31    1
    31     8    32    1
    32    10    33    1
    33    10    34    1
    34    11    35    1
    35    11    36    1
    36    13    37    1
    37    13    38    1
    38    14    39    1
    39    14    40    1
    40    16    41    1
    41    16    42    1
    42    17    43    1
    43    17    44    1
    44    19    45    1
    45    19    46    1
    46    19    47    1
