@<TRIPOS>MOLECULE
*****
 21 20 0 0 0
SMALL
GASTEIGER

@<TRIPOS>ATOM
      1 O           1.0522   -0.0016    0.0853 O.2     1  UNL1       -0.3010
      2 C           2.3231   -0.0016    0.0853 C.2     1  UNL1        0.1225
      3 C           3.0831   -1.2919   -0.1751 C.3     1  UNL1        0.0262
      4 C           4.5775   -1.0197   -0.1202 C.3     1  UNL1        0.0541
      5 O           5.2875   -2.2251   -0.3635 O.3     1  UNL1       -0.3793
      6 C           6.6836   -1.9708   -0.3121 C.3     1  UNL1        0.0497
      7 C           7.4436   -3.2611   -0.5726 C.3     1  UNL1       -0.0062
      8 C           8.9380   -2.9888   -0.5176 C.3     1  UNL1        0.0463
      9 O           9.6480   -4.1943   -0.7609 O.3     1  UNL1       -0.3949
     10 H           2.8391    0.8745    0.2621 H       1  UNL1        0.1027
     11 H           2.8246   -1.6691   -1.1425 H       1  UNL1        0.0361
     12 H           2.8246   -2.0148    0.5702 H       1  UNL1        0.0361
     13 H           4.8360   -0.6425    0.8472 H       1  UNL1        0.0564
     14 H           4.8360   -0.2968   -0.8656 H       1  UNL1        0.0564
     15 H           6.9421   -1.5936    0.6552 H       1  UNL1        0.0560
     16 H           6.9421   -1.2479   -1.0575 H       1  UNL1        0.0560
     17 H           7.1851   -3.6382   -1.5400 H       1  UNL1        0.0309
     18 H           7.1851   -3.9839    0.1728 H       1  UNL1        0.0309
     19 H           9.1965   -2.6117    0.4498 H       1  UNL1        0.0558
     20 H           9.1965   -2.2660   -1.2630 H       1  UNL1        0.0558
     21 H           9.4136   -4.8496   -0.0852 H       1  UNL1        0.2094
@<TRIPOS>BOND
     1     1     2    2
     2     2     3    1
     3     3     4    1
     4     4     5    1
     5     5     6    1
     6     6     7    1
     7     7     8    1
     8     8     9    1
     9     2    10    1
    10     3    11    1
    11     3    12    1
    12     4    13    1
    13     4    14    1
    14     6    15    1
    15     6    16    1
    16     7    17    1
    17     7    18    1
    18     8    19    1
    19     8    20    1
    20     9    21    1
