@<TRIPOS>MOLECULE
*****
 31 32 0 0 0
SMALL
GASTEIGER

@<TRIPOS>ATOM
      1 C           1.0482   -0.0871    0.0096 C.3     1  UNL1       -0.0027
      2 C           2.5682   -0.0871    0.0096 C.3     1  UNL1       -0.0247
      3 C           3.0749    1.1168    0.7870 C.3     1  UNL1        0.0128
      4 N           2.5849    1.0479    2.1712 N.3     1  UNL1       -0.2969
      5 C           1.1149    1.0479    2.1712 C.3     1  UNL1        0.0118
      6 C           0.6082    0.9766    3.6025 C.3     1  UNL1        0.0087
      7 N          -0.8618    0.9766    3.6025 N.3     1  UNL1       -0.3136
      8 C          -1.3518    0.9076    4.9867 C.3     1  UNL1        0.0087
      9 C           3.0749    2.2121    2.9230 C.3     1  UNL1        0.0118
     10 C           4.5949    1.1168    0.7870 C.3     1  UNL1       -0.0247
     11 C           5.1015    2.3207    1.5644 C.3     1  UNL1       -0.0027
     12 N           0.5582   -1.2514   -0.7422 N.3     1  UNL1       -0.3159
     13 H           0.6915    0.8106   -0.4507 H       1  UNL1        0.0424
     14 H           0.6915   -0.1373    1.0171 H       1  UNL1        0.0424
     15 H           2.9249   -0.0369   -0.9980 H       1  UNL1        0.0293
     16 H           2.9249   -0.9848    0.4699 H       1  UNL1        0.0293
     17 H           2.7182    2.0145    0.3267 H       1  UNL1        0.0463
     18 H           0.7582    0.2004    1.6239 H       1  UNL1        0.0439
     19 H           0.7582    1.9455    1.7109 H       1  UNL1        0.0439
     20 H           0.9649    1.8240    4.1497 H       1  UNL1        0.0437
     21 H           0.9649    0.0789    4.0628 H       1  UNL1        0.0437
     22 H          -1.2018    0.1687    3.0808 H       1  UNL1        0.1220
     23 H          -1.4886   -0.0241    5.4946 H       1  UNL1        0.0437
     24 H          -2.1222    1.3108    5.6103 H       1  UNL1        0.0437
     25 H           3.9556    2.0838    3.5169 H       1  UNL1        0.0439
     26 H           3.3895    3.1662    2.5546 H       1  UNL1        0.0439
     27 H           4.9515    1.1670   -0.2206 H       1  UNL1        0.0293
     28 H           4.9515    0.2191    1.2473 H       1  UNL1        0.0293
     29 H           5.4396    3.2290    1.1109 H       1  UNL1        0.0424
     30 H           5.6042    2.6685    2.4426 H       1  UNL1        0.0424
     31 H           0.2359   -2.1172   -0.3100 H       1  UNL1        0.1219
@<TRIPOS>BOND
     1     1     2    1
     2     2     3    1
     3     3     4    1
     4     4     5    1
     5     5     6    1
     6     6     7    1
     7     7     8    1
     8     8     9    1
     9     4     9    1
    10     3    10    1
    11    10    11    1
    12    11    12    1
    13     1    12    1
    14     1    13    1
    15     1    14    1
    16     2    15    1
    17     2    16    1
    18     3    17    1
    19     5    18    1
    20     5    19    1
    21     6    20    1
    22     6    21    1
    23     7    22    1
    24     8    23    1
    25     8    24    1
    26     9    25    1
    27     9    26    1
    28    10    27    1
    29    10    28    1
    30    11    29    1
    31    11    30    1
    32    12    31    1
