@<TRIPOS>MOLECULE
*****
 39 39 0 0 0
SMALL
GASTEIGER

@<TRIPOS>ATOM
      1 N           1.0586   -0.0043   -0.0809 N.3     1  UNL1       -0.3279
      2 C           2.5286   -0.0043   -0.0809 C.3     1  UNL1        0.0166
      3 C           3.0352   -0.7510    1.1422 C.3     1  UNL1        0.0600
      4 O           4.4552   -0.7510    1.1422 O.3     1  UNL1       -0.3763
      5 C           4.9286   -1.4485    2.2849 C.3     1  UNL1        0.0711
      6 C           6.4486   -1.4485    2.2849 C.3     1  UNL1        0.0711
      7 O           6.9219   -2.1461    3.4276 O.3     1  UNL1       -0.3762
      8 C           8.3419   -2.1461    3.4276 C.3     1  UNL1        0.0605
      9 C           8.8485   -2.8928    4.6508 C.3     1  UNL1        0.0223
     10 N          10.3185   -2.8928    4.6508 N.3     1  UNL1       -0.3001
     11 C          10.8085   -3.6149    5.8338 C.3     1  UNL1       -0.0010
     12 C          12.3285   -3.6149    5.8338 C.3     1  UNL1       -0.0402
     13 C          12.8352   -4.3616    7.0569 C.3     1  UNL1       -0.0507
     14 C          14.3552   -4.3616    7.0569 C.3     1  UNL1       -0.0402
     15 C          10.8085   -1.5073    4.6847 C.3     1  UNL1       -0.0010
     16 H           0.7186    0.4967   -0.9018 H       1  UNL1        0.1183
     17 H           0.7186    0.4560    0.7634 H       1  UNL1        0.1183
     18 H           2.8852    1.0042   -0.0563 H       1  UNL1        0.0444
     19 H           2.8852   -0.4872   -0.9667 H       1  UNL1        0.0444
     20 H           2.6786   -1.7595    1.1176 H       1  UNL1        0.0572
     21 H           2.6786   -0.2681    2.0280 H       1  UNL1        0.0572
     22 H           4.5719   -2.4571    2.2603 H       1  UNL1        0.0583
     23 H           4.5719   -0.9657    3.1707 H       1  UNL1        0.0583
     24 H           6.8052   -0.4400    2.3096 H       1  UNL1        0.0583
     25 H           6.8052   -1.9314    1.3992 H       1  UNL1        0.0583
     26 H           8.6985   -1.1376    3.4523 H       1  UNL1        0.0572
     27 H           8.6985   -2.6290    2.5419 H       1  UNL1        0.0572
     28 H           8.4919   -3.9013    4.6261 H       1  UNL1        0.0449
     29 H           8.4919   -2.4099    5.5366 H       1  UNL1        0.0449
     30 H          10.4519   -4.6234    5.8091 H       1  UNL1        0.0426
     31 H          10.4519   -3.1320    6.7195 H       1  UNL1        0.0426
     32 H          12.6852   -2.6064    5.8584 H       1  UNL1        0.0278
     33 H          12.6852   -4.0978    4.9480 H       1  UNL1        0.0278
     34 H          12.4785   -5.3701    7.0323 H       1  UNL1        0.0266
     35 H          12.4785   -3.8787    7.9427 H       1  UNL1        0.0266
     36 H          14.9232   -5.1068    6.5403 H       1  UNL1        0.0278
     37 H          15.1812   -4.2616    7.7298 H       1  UNL1        0.0278
     38 H          11.0791   -1.0552    3.7534 H       1  UNL1        0.0426
     39 H          10.3100   -0.6285    5.0370 H       1  UNL1        0.0426
@<TRIPOS>BOND
     1     1     2    1
     2     2     3    1
     3     3     4    1
     4     4     5    1
     5     5     6    1
     6     6     7    1
     7     7     8    1
     8     8     9    1
     9     9    10    1
    10    10    11    1
    11    11    12    1
    12    12    13    1
    13    13    14    1
    14    14    15    1
    15    10    15    1
    16     1    16    1
    17     1    17    1
    18     2    18    1
    19     2    19    1
    20     3    20    1
    21     3    21    1
    22     5    22    1
    23     5    23    1
    24     6    24    1
    25     6    25    1
    26     8    26    1
    27     8    27    1
    28     9    28    1
    29     9    29    1
    30    11    30    1
    31    11    31    1
    32    12    32    1
    33    12    33    1
    34    13    34    1
    35    13    35    1
    36    14    36    1
    37    14    37    1
    38    15    38    1
    39    15    39    1
