@<TRIPOS>MOLECULE
*****
 16 15 0 0 0
SMALL
GASTEIGER

@<TRIPOS>ATOM
      1 C           1.0995    0.0056   -0.0081 C.1     1  UNL1       -0.1192
      2 C           2.4034    0.0056   -0.0081 C.1     1  UNL1       -0.1056
      3 C           3.9234    0.0056   -0.0081 C.3     1  UNL1        0.0089
      4 C           4.4300   -1.0127   -1.0165 C.3     1  UNL1       -0.0424
      5 C           5.9500   -1.0127   -1.0165 C.3     1  UNL1       -0.0551
      6 C           6.4567   -2.0309   -2.0249 C.3     1  UNL1       -0.0652
      7 H           0.1055    0.0056   -0.0081 H       1  UNL1        0.1228
      8 H           4.2800   -0.2508    0.9676 H       1  UNL1        0.0397
      9 H           4.2800    0.9787   -0.2739 H       1  UNL1        0.0397
     10 H           4.0734   -0.7563   -1.9922 H       1  UNL1        0.0274
     11 H           4.0734   -1.9858   -0.7507 H       1  UNL1        0.0274
     12 H           6.3067   -1.2690   -0.0408 H       1  UNL1        0.0263
     13 H           6.3067   -0.0395   -1.2823 H       1  UNL1        0.0263
     14 H           6.1000   -3.0040   -1.7591 H       1  UNL1        0.0230
     15 H           7.5267   -2.0309   -2.0249 H       1  UNL1        0.0230
     16 H           6.1000   -1.7745   -3.0006 H       1  UNL1        0.0230
@<TRIPOS>BOND
     1     1     2    3
     2     2     3    1
     3     3     4    1
     4     4     5    1
     5     5     6    1
     6     1     7    1
     7     3     8    1
     8     3     9    1
     9     4    10    1
    10     4    11    1
    11     5    12    1
    12     5    13    1
    13     6    14    1
    14     6    15    1
    15     6    16    1
