@<TRIPOS>MOLECULE
*****
 5 4 0 0 0
SMALL
GASTEIGER

@<TRIPOS>ATOM
      1 C           0.9562   -0.0325    0.0838 C.3     1  UNL1       -0.0776
      2 H           2.0262   -0.0325    0.0838 H       1  UNL1        0.0194
      3 H           0.5996   -0.7288    0.8138 H       1  UNL1        0.0194
      4 H           0.5995   -0.3165   -0.8842 H       1  UNL1        0.0194
      5 H           0.5995    0.9478    0.3219 H       1  UNL1        0.0194
@<TRIPOS>BOND
     1     1     2    1
     2     1     3    1
     3     1     4    1
     4     1     5    1
