@<TRIPOS>MOLECULE
*****
 27 27 0 0 0
SMALL
GASTEIGER

@<TRIPOS>ATOM
      1 N           1.0198    0.0780   -0.0593 N.3     1  UNL1       -0.3283
      2 C           2.4898    0.0780   -0.0593 C.3     1  UNL1        0.0128
      3 C           2.9965   -0.8073   -1.1862 C.3     1  UNL1        0.0554
      4 N           4.4665   -0.8073   -1.1862 N.ar    1  UNL1       -0.2502
      5 C           5.1629   -1.5525   -2.1347 C.ar    1  UNL1        0.0510
      6 C           6.6031   -1.5525   -2.1347 C.ar    1  UNL1        0.1083
      7 C           7.3631   -0.7393   -1.0996 C.3     1  UNL1        0.0930
      8 O           6.4403   -0.0725   -0.2509 O.3     1  UNL1       -0.3713
      9 C           7.1503    0.6872    0.7161 C.3     1  UNL1        0.0712
     10 C           6.1626    1.4010    1.6246 C.3     1  UNL1        0.0676
     11 O           6.8726    2.1607    2.5916 O.3     1  UNL1       -0.3927
     12 N           7.2995   -2.2977   -3.0832 N.ar    1  UNL1       -0.1322
     13 N           5.1392   -0.0875   -0.2700 N.ar    1  UNL1       -0.0653
     14 H           0.6798    0.6721    0.6969 H       1  UNL1        0.1183
     15 H           0.6798   -0.8739    0.0771 H       1  UNL1        0.1183
     16 H           2.8465   -0.2974    0.8770 H       1  UNL1        0.0440
     17 H           2.8465    1.0766   -0.2024 H       1  UNL1        0.0440
     18 H           2.6398   -0.4319   -2.1226 H       1  UNL1        0.0522
     19 H           2.6398   -1.8059   -1.0431 H       1  UNL1        0.0522
     20 H           4.6469   -2.1046   -2.8375 H       1  UNL1        0.0846
     21 H           7.9782   -0.0173   -1.5948 H       1  UNL1        0.0626
     22 H           7.9782   -1.3912   -0.5153 H       1  UNL1        0.0626
     23 H           7.7655    1.4092    0.2209 H       1  UNL1        0.0583
     24 H           7.7655    0.0353    1.3004 H       1  UNL1        0.0583
     25 H           5.5474    0.6790    2.1197 H       1  UNL1        0.0580
     26 H           5.5474    2.0530    1.0403 H       1  UNL1        0.0580
     27 H           7.4302    1.5697    3.1213 H       1  UNL1        0.2095
@<TRIPOS>BOND
     1     1     2    1
     2     2     3    1
     3     3     4    1
     4     4     5   ar
     5     5     6   ar
     6     6     7    1
     7     7     8    1
     8     8     9    1
     9     9    10    1
    10    10    11    1
    11     6    12   ar
    12    12    13   ar
    13     4    13   ar
    14     1    14    1
    15     1    15    1
    16     2    16    1
    17     2    17    1
    18     3    18    1
    19     3    19    1
    20     5    20    1
    21     7    21    1
    22     7    22    1
    23     9    23    1
    24     9    24    1
    25    10    25    1
    26    10    26    1
    27    11    27    1
