@<TRIPOS>MOLECULE
*****
 41 41 0 0 0
SMALL
GASTEIGER

@<TRIPOS>ATOM
      1 N           1.0207    0.0268    0.0941 N.3     1  UNL1       -0.3283
      2 C           2.4907    0.0268    0.0941 C.3     1  UNL1        0.0128
      3 C           2.9974   -0.7052    1.3262 C.3     1  UNL1        0.0554
      4 N           4.4674   -0.7052    1.3262 N.ar    1  UNL1       -0.2502
      5 C           5.1638   -1.3212    2.3632 C.ar    1  UNL1        0.0510
      6 C           6.6040   -1.3212    2.3632 C.ar    1  UNL1        0.1083
      7 C           7.3640   -0.6489    1.2315 C.3     1  UNL1        0.0930
      8 O           6.4412   -0.0977    0.3036 O.3     1  UNL1       -0.3713
      9 C           7.1512    0.5304   -0.7537 C.3     1  UNL1        0.0715
     10 C           6.1635    1.1205   -1.7470 C.3     1  UNL1        0.0711
     11 O           6.8735    1.7486   -2.8043 O.3     1  UNL1       -0.3752
     12 C           5.9507    2.2998   -3.7322 C.3     1  UNL1        0.0711
     13 C           6.7107    2.9721   -4.8639 C.3     1  UNL1        0.0711
     14 O           5.7880    3.5233   -5.7918 O.3     1  UNL1       -0.3752
     15 C           6.4980    4.1514   -6.8491 C.3     1  UNL1        0.0708
     16 C           5.5102    4.7415   -7.8424 C.3     1  UNL1        0.0676
     17 O           6.2202    5.3696   -8.8996 O.3     1  UNL1       -0.3927
     18 N           7.3004   -1.9373    3.4002 N.ar    1  UNL1       -0.1322
     19 N           5.1401   -0.1101    0.3244 N.ar    1  UNL1       -0.0653
     20 H           0.6807    0.5179   -0.7327 H       1  UNL1        0.1183
     21 H           0.6807    0.4972    0.9328 H       1  UNL1        0.1183
     22 H           2.8474    1.0355    0.1067 H       1  UNL1        0.0440
     23 H           2.8474   -0.4667   -0.7858 H       1  UNL1        0.0440
     24 H           2.6407   -1.7139    1.3136 H       1  UNL1        0.0522
     25 H           2.6407   -0.2117    2.2060 H       1  UNL1        0.0522
     26 H           4.6478   -1.7777    3.1316 H       1  UNL1        0.0846
     27 H           7.9792   -1.3711    0.7365 H       1  UNL1        0.0626
     28 H           7.9792    0.1311    1.6289 H       1  UNL1        0.0626
     29 H           7.7664   -0.1918   -1.2487 H       1  UNL1        0.0583
     30 H           7.7664    1.3105   -0.3562 H       1  UNL1        0.0583
     31 H           5.5483    1.8426   -1.2520 H       1  UNL1        0.0583
     32 H           5.5483    0.3404   -2.1445 H       1  UNL1        0.0583
     33 H           5.3356    3.0220   -3.2372 H       1  UNL1        0.0583
     34 H           5.3356    1.5197   -4.1296 H       1  UNL1        0.0583
     35 H           7.3259    2.2499   -5.3588 H       1  UNL1        0.0583
     36 H           7.3259    3.7522   -4.4664 H       1  UNL1        0.0583
     37 H           7.1131    3.4293   -7.3440 H       1  UNL1        0.0583
     38 H           7.1131    4.9315   -6.4516 H       1  UNL1        0.0583
     39 H           4.8951    5.4637   -7.3474 H       1  UNL1        0.0580
     40 H           4.8951    3.9614   -8.2398 H       1  UNL1        0.0580
     41 H           6.7779    6.0767   -8.5393 H       1  UNL1        0.2095
@<TRIPOS>BOND
     1     1     2    1
     2     2     3    1
     3     3     4    1
     4     4     5   ar
     5     5     6   ar
     6     6     7    1
     7     7     8    1
     8     8     9    1
     9     9    10    1
    10    10    11    1
    11    11    12    1
    12    12    13    1
    13    13    14    1
    14    14    15    1
    15    15    16    1
    16    16    17    1
    17     6    18   ar
    18    18    19   ar
    19     4    19   ar
    20     1    20    1
    21     1    21    1
    22     2    22    1
    23     2    23    1
    24     3    24    1
    25     3    25    1
    26     5    26    1
    27     7    27    1
    28     7    28    1
    29     9    29    1
    30     9    30    1
    31    10    31    1
    32    10    32    1
    33    12    33    1
    34    12    34    1
    35    13    35    1
    36    13    36    1
    37    15    37    1
    38    15    38    1
    39    16    39    1
    40    16    40    1
    41    17    41    1
