@<TRIPOS>MOLECULE
*****
 32 31 0 0 0
SMALL
GASTEIGER

@<TRIPOS>ATOM
      1 C           0.9782   -0.0863    0.0456 C.3     1  UNL1       -0.0632
      2 C           2.4982   -0.0863    0.0456 C.3     1  UNL1       -0.0323
      3 C           3.0048   -0.8386   -1.1741 C.3     1  UNL1        0.0475
      4 O           4.4248   -0.8386   -1.1741 O.3     1  UNL1       -0.3775
      5 C           4.8981   -1.5415   -2.3136 C.3     1  UNL1        0.0710
      6 C           6.4181   -1.5415   -2.3136 C.3     1  UNL1        0.0711
      7 O           6.8915   -2.2443   -3.4530 O.3     1  UNL1       -0.3760
      8 C           8.3115   -2.2443   -3.4530 C.3     1  UNL1        0.0635
      9 C           8.8181   -2.9967   -4.6727 C.3     1  UNL1        0.0375
     10 N          10.2881   -2.9967   -4.6727 N.am    1  UNL1       -0.3049
     11 C          11.0231   -2.3283   -3.5892 C.3     1  UNL1        0.0030
     12 C          11.0231   -3.6650   -5.7562 C.2     1  UNL1        0.2023
     13 O          12.2940   -3.6650   -5.7562 O.2     1  UNL1       -0.2793
     14 H           0.6215    0.4433    0.9042 H       1  UNL1        0.0230
     15 H           0.6215   -1.0947    0.0749 H       1  UNL1        0.0230
     16 H           0.6215    0.3925   -0.8424 H       1  UNL1        0.0230
     17 H           2.8548   -0.5650    0.9335 H       1  UNL1        0.0285
     18 H           2.8548    0.9221    0.0162 H       1  UNL1        0.0285
     19 H           2.6481   -0.3599   -2.0621 H       1  UNL1        0.0560
     20 H           2.6481   -1.8470   -1.1448 H       1  UNL1        0.0560
     21 H           4.5415   -1.0627   -3.2015 H       1  UNL1        0.0583
     22 H           4.5415   -2.5499   -2.2842 H       1  UNL1        0.0583
     23 H           6.7748   -2.0202   -1.4256 H       1  UNL1        0.0583
     24 H           6.7748   -0.5331   -2.3429 H       1  UNL1        0.0583
     25 H           8.6681   -2.7231   -2.5651 H       1  UNL1        0.0575
     26 H           8.6681   -1.2360   -3.4824 H       1  UNL1        0.0575
     27 H           8.4615   -2.5179   -5.5607 H       1  UNL1        0.0487
     28 H           8.4615   -4.0051   -4.6434 H       1  UNL1        0.0487
     29 H          10.3278   -1.9014   -2.8970 H       1  UNL1        0.0428
     30 H          11.6383   -1.5550   -3.9996 H       1  UNL1        0.0428
     31 H          11.6383   -3.0422   -3.0823 H       1  UNL1        0.0428
     32 H          10.5071   -4.1342   -6.5169 H       1  UNL1        0.1253
@<TRIPOS>BOND
     1     1     2    1
     2     2     3    1
     3     3     4    1
     4     4     5    1
     5     5     6    1
     6     6     7    1
     7     7     8    1
     8     8     9    1
     9     9    10    1
    10    10    11    1
    11    10    12   am
    12    12    13    2
    13     1    14    1
    14     1    15    1
    15     1    16    1
    16     2    17    1
    17     2    18    1
    18     3    19    1
    19     3    20    1
    20     5    21    1
    21     5    22    1
    22     6    23    1
    23     6    24    1
    24     8    25    1
    25     8    26    1
    26     9    27    1
    27     9    28    1
    28    11    29    1
    29    11    30    1
    30    11    31    1
    31    12    32    1
