@<TRIPOS>MOLECULE
*****
 60 60 0 0 0
SMALL
GASTEIGER

@<TRIPOS>ATOM
      1 N           0.9471    0.0422   -0.0736 N.3     1  UNL1       -0.3279
      2 C           2.4171    0.0422   -0.0736 C.3     1  UNL1        0.0166
      3 C           2.9237   -1.3358   -0.4672 C.3     1  UNL1        0.0600
      4 O           4.3437   -1.3358   -0.4672 O.3     1  UNL1       -0.3763
      5 C           4.8171   -2.6231   -0.8348 C.3     1  UNL1        0.0711
      6 C           6.3371   -2.6231   -0.8348 C.3     1  UNL1        0.0711
      7 O           6.8104   -3.9105   -1.2025 O.3     1  UNL1       -0.3752
      8 C           8.2304   -3.9105   -1.2025 C.3     1  UNL1        0.0711
      9 C           8.7371   -5.2884   -1.5960 C.3     1  UNL1        0.0711
     10 O          10.1571   -5.2884   -1.5960 O.3     1  UNL1       -0.3752
     11 C          10.6304   -6.5758   -1.9637 C.3     1  UNL1        0.0711
     12 C          12.1504   -6.5758   -1.9637 C.3     1  UNL1        0.0711
     13 O          12.6237   -7.8631   -2.3313 O.3     1  UNL1       -0.3757
     14 C          14.0437   -7.8631   -2.3313 C.3     1  UNL1        0.0673
     15 C          14.5504   -9.2410   -2.7249 C.3     1  UNL1        0.0665
     16 N          16.0204   -9.2410   -2.7249 N.ar    1  UNL1       -0.2492
     17 C          16.7168  -10.4009   -3.0561 C.ar    1  UNL1        0.0487
     18 C          18.1570  -10.4009   -3.0561 C.ar    1  UNL1        0.0828
     19 C          18.9170   -9.1351   -2.6946 C.3     1  UNL1       -0.0071
     20 C          17.9292   -8.0242   -2.3774 C.3     1  UNL1       -0.0475
     21 C          18.6892   -6.7585   -2.0159 C.3     1  UNL1       -0.0506
     22 C          17.7015   -5.6476   -1.6986 C.3     1  UNL1       -0.0297
     23 C          18.4615   -4.3818   -1.3371 C.3     1  UNL1        0.0442
     24 O          17.5387   -3.3440   -1.0407 O.3     1  UNL1       -0.3950
     25 N          18.8534  -11.5607   -3.3874 N.ar    1  UNL1       -0.1345
     26 N          16.6931   -8.1207   -2.4049 N.ar    1  UNL1       -0.0654
     27 H           0.6071    0.9669    0.1905 H       1  UNL1        0.1183
     28 H           0.6071   -0.6489    0.5951 H       1  UNL1        0.1183
     29 H           2.7737    0.2872    0.9049 H       1  UNL1        0.0444
     30 H           2.7737    0.7671   -0.7752 H       1  UNL1        0.0444
     31 H           2.5671   -1.5809   -1.4458 H       1  UNL1        0.0572
     32 H           2.5671   -2.0607    0.2344 H       1  UNL1        0.0572
     33 H           4.4604   -2.8682   -1.8134 H       1  UNL1        0.0583
     34 H           4.4604   -3.3481   -0.1333 H       1  UNL1        0.0583
     35 H           6.6937   -2.3780    0.1438 H       1  UNL1        0.0583
     36 H           6.6937   -1.8982   -1.5364 H       1  UNL1        0.0583
     37 H           8.5871   -3.6654   -0.2239 H       1  UNL1        0.0583
     38 H           8.5871   -3.1855   -1.9040 H       1  UNL1        0.0583
     39 H           8.3804   -5.5335   -2.5746 H       1  UNL1        0.0583
     40 H           8.3804   -6.0134   -0.8945 H       1  UNL1        0.0583
     41 H          10.2737   -6.8208   -2.9423 H       1  UNL1        0.0583
     42 H          10.2737   -7.3007   -1.2621 H       1  UNL1        0.0583
     43 H          12.5070   -6.3307   -0.9851 H       1  UNL1        0.0583
     44 H          12.5070   -5.8508   -2.6652 H       1  UNL1        0.0583
     45 H          14.4004   -7.6180   -1.3527 H       1  UNL1        0.0578
     46 H          14.4004   -7.1381   -3.0329 H       1  UNL1        0.0578
     47 H          14.1937   -9.4861   -3.7035 H       1  UNL1        0.0532
     48 H          14.1937   -9.9660   -2.0233 H       1  UNL1        0.0532
     49 H          16.2008  -11.2603   -3.3016 H       1  UNL1        0.0845
     50 H          19.5321   -8.8407   -3.5191 H       1  UNL1        0.0329
     51 H          19.5321   -9.3206   -1.8390 H       1  UNL1        0.0329
     52 H          17.3141   -8.3187   -1.5529 H       1  UNL1        0.0269
     53 H          17.3141   -7.8388   -3.2330 H       1  UNL1        0.0269
     54 H          19.3044   -6.4641   -2.8404 H       1  UNL1        0.0266
     55 H          19.3044   -6.9439   -1.1602 H       1  UNL1        0.0266
     56 H          17.0863   -5.9420   -0.8741 H       1  UNL1        0.0287
     57 H          17.0863   -5.4622   -2.5542 H       1  UNL1        0.0287
     58 H          19.0766   -4.0874   -2.1616 H       1  UNL1        0.0557
     59 H          19.0767   -4.5673   -0.4815 H       1  UNL1        0.0557
     60 H          16.9811   -3.1760   -1.8164 H       1  UNL1        0.2094
@<TRIPOS>BOND
     1     1     2    1
     2     2     3    1
     3     3     4    1
     4     4     5    1
     5     5     6    1
     6     6     7    1
     7     7     8    1
     8     8     9    1
     9     9    10    1
    10    10    11    1
    11    11    12    1
    12    12    13    1
    13    13    14    1
    14    14    15    1
    15    15    16    1
    16    16    17   ar
    17    17    18   ar
    18    18    19    1
    19    19    20    1
    20    20    21    1
    21    21    22    1
    22    22    23    1
    23    23    24    1
    24    18    25   ar
    25    25    26   ar
    26    16    26   ar
    27     1    27    1
    28     1    28    1
    29     2    29    1
    30     2    30    1
    31     3    31    1
    32     3    32    1
    33     5    33    1
    34     5    34    1
    35     6    35    1
    36     6    36    1
    37     8    37    1
    38     8    38    1
    39     9    39    1
    40     9    40    1
    41    11    41    1
    42    11    42    1
    43    12    43    1
    44    12    44    1
    45    14    45    1
    46    14    46    1
    47    15    47    1
    48    15    48    1
    49    17    49    1
    50    19    50    1
    51    19    51    1
    52    20    52    1
    53    20    53    1
    54    21    54    1
    55    21    55    1
    56    22    56    1
    57    22    57    1
    58    23    58    1
    59    23    59    1
    60    24    60    1
