@<TRIPOS>MOLECULE
*****
 17 16 0 0 0
SMALL
GASTEIGER

@<TRIPOS>ATOM
      1 C           1.0860   -0.0236    0.0453 C.3     1  UNL1       -0.0653
      2 C           2.6060   -0.0236    0.0453 C.3     1  UNL1       -0.0559
      3 C           3.1126    1.4093    0.0677 C.3     1  UNL1       -0.0536
      4 C           4.6326    1.4093    0.0677 C.3     1  UNL1       -0.0559
      5 C           5.1393    2.8422    0.0902 C.3     1  UNL1       -0.0653
      6 H           0.7293   -1.0323    0.0295 H       1  UNL1        0.0230
      7 H           0.7293    0.4944   -0.8204 H       1  UNL1        0.0230
      8 H           0.7293    0.4671    0.9267 H       1  UNL1        0.0230
      9 H           2.9626   -0.5143   -0.8362 H       1  UNL1        0.0263
     10 H           2.9626   -0.5416    0.9109 H       1  UNL1        0.0263
     11 H           2.7560    1.9000    0.9492 H       1  UNL1        0.0265
     12 H           2.7560    1.9273   -0.7979 H       1  UNL1        0.0265
     13 H           4.9893    0.9186   -0.8137 H       1  UNL1        0.0263
     14 H           4.9893    0.8913    0.9334 H       1  UNL1        0.0263
     15 H           4.7826    3.3602   -0.7755 H       1  UNL1        0.0230
     16 H           6.2093    2.8422    0.0902 H       1  UNL1        0.0230
     17 H           4.7826    3.3328    0.9716 H       1  UNL1        0.0230
@<TRIPOS>BOND
     1     1     2    1
     2     2     3    1
     3     3     4    1
     4     4     5    1
     5     1     6    1
     6     1     7    1
     7     1     8    1
     8     2     9    1
     9     2    10    1
    10     3    11    1
    11     3    12    1
    12     4    13    1
    13     4    14    1
    14     5    15    1
    15     5    16    1
    16     5    17    1
