@<TRIPOS>MOLECULE
*****
 30 29 0 0 0
SMALL
GASTEIGER

@<TRIPOS>ATOM
      1 C           1.0324   -0.0428   -0.0843 C.3     1  UNL1        0.0121
      2 C           2.5524   -0.0428   -0.0843 C.2     1  UNL1        0.2100
      3 O           3.1879    0.2218    0.9840 O.2     1  UNL1       -0.2761
      4 N           3.2874   -0.3489   -1.3201 N.am    1  UNL1       -0.3133
      5 C           4.7574   -0.3489   -1.3201 C.3     1  UNL1        0.0350
      6 C           5.2641   -0.6934   -2.7111 C.3     1  UNL1        0.0632
      7 O           6.6841   -0.6934   -2.7111 O.3     1  UNL1       -0.3767
      8 C           7.1574   -1.0153   -4.0106 C.3     1  UNL1        0.0632
      9 C           8.6774   -1.0153   -4.0106 C.3     1  UNL1        0.0351
     10 N           9.1674   -1.3485   -5.3559 N.am    1  UNL1       -0.3112
     11 C          10.6127   -1.4131   -5.6166 C.2     1  UNL1        0.2386
     12 O          11.4385   -1.1808   -4.6790 O.2     1  UNL1       -0.2733
     13 C          11.1193   -1.7576   -7.0077 C.3     1  UNL1        0.1202
     14 O          12.5393   -1.7576   -7.0077 O.3     1  UNL1       -0.3858
     15 H           0.6758    0.1997    0.8949 H       1  UNL1        0.0322
     16 H           0.6758   -1.0121   -0.3639 H       1  UNL1        0.0322
     17 H           0.6758    0.6839   -0.7840 H       1  UNL1        0.0322
     18 H           2.7952   -0.5539   -2.1477 H       1  UNL1        0.1488
     19 H           5.1141   -1.0757   -0.6204 H       1  UNL1        0.0484
     20 H           5.1141    0.6204   -1.0405 H       1  UNL1        0.0484
     21 H           4.9074    0.0333   -3.4107 H       1  UNL1        0.0575
     22 H           4.9074   -1.6627   -2.9907 H       1  UNL1        0.0575
     23 H           6.8007   -0.2885   -4.7103 H       1  UNL1        0.0575
     24 H           6.8007   -1.9846   -4.2902 H       1  UNL1        0.0575
     25 H           9.0341   -1.7421   -3.3110 H       1  UNL1        0.0484
     26 H           9.0341   -0.0460   -3.7311 H       1  UNL1        0.0484
     27 H           8.5277   -1.5284   -6.0823 H       1  UNL1        0.1488
     28 H          10.7627   -1.0309   -7.7073 H       1  UNL1        0.0654
     29 H          10.7627   -2.7269   -7.2873 H       1  UNL1        0.0654
     30 H          12.8627   -0.8789   -6.7542 H       1  UNL1        0.2100
@<TRIPOS>BOND
     1     1     2    1
     2     2     3    2
     3     2     4   am
     4     4     5    1
     5     5     6    1
     6     6     7    1
     7     7     8    1
     8     8     9    1
     9     9    10    1
    10    10    11   am
    11    11    12    2
    12    11    13    1
    13    13    14    1
    14     1    15    1
    15     1    16    1
    16     1    17    1
    17     4    18    1
    18     5    19    1
    19     5    20    1
    20     6    21    1
    21     6    22    1
    22     8    23    1
    23     8    24    1
    24     9    25    1
    25     9    26    1
    26    10    27    1
    27    13    28    1
    28    13    29    1
    29    14    30    1
