@<TRIPOS>MOLECULE
*****
 30 29 0 0 0
SMALL
GASTEIGER

@<TRIPOS>ATOM
      1 C           1.0136   -0.0175   -0.0975 C.3     1  UNL1       -0.0653
      2 C           2.5336   -0.0175   -0.0975 C.3     1  UNL1       -0.0559
      3 C           3.0403    0.6635    1.1634 C.3     1  UNL1       -0.0519
      4 C           4.5603    0.6635    1.1634 C.3     1  UNL1       -0.0374
      5 C           5.0669    1.3445    2.4243 C.3     1  UNL1        0.0116
      6 N           6.5369    1.3445    2.4243 N.am    1  UNL1       -0.3153
      7 C           7.2719    1.9495    3.5444 C.2     1  UNL1        0.2130
      8 O           6.6365    2.4726    4.5128 O.2     1  UNL1       -0.2758
      9 C           8.7919    1.9495    3.5444 C.3     1  UNL1        0.0237
     10 C           9.2986    2.6306    4.8053 C.3     1  UNL1       -0.0476
     11 C          10.8186    2.6306    4.8053 C.3     1  UNL1       -0.0648
     12 H           0.6570   -0.4970   -0.9851 H       1  UNL1        0.0230
     13 H           0.6569    0.9909   -0.0689 H       1  UNL1        0.0230
     14 H           0.6569   -0.5465    0.7615 H       1  UNL1        0.0230
     15 H           2.8903    0.5114   -0.9565 H       1  UNL1        0.0263
     16 H           2.8903   -1.0259   -0.1261 H       1  UNL1        0.0263
     17 H           2.6836    0.1345    2.0224 H       1  UNL1        0.0266
     18 H           2.6836    1.6719    1.1920 H       1  UNL1        0.0266
     19 H           4.9169    1.1925    0.3044 H       1  UNL1        0.0280
     20 H           4.9169   -0.3449    1.1348 H       1  UNL1        0.0280
     21 H           4.7103    0.8156    3.2833 H       1  UNL1        0.0462
     22 H           4.7103    2.3529    2.4529 H       1  UNL1        0.0462
     23 H           7.0292    0.9394    1.6741 H       1  UNL1        0.1487
     24 H           9.1486    2.4785    2.6854 H       1  UNL1        0.0358
     25 H           9.1486    0.9411    3.5158 H       1  UNL1        0.0358
     26 H           8.9419    2.1016    5.6643 H       1  UNL1        0.0267
     27 H           8.9419    3.6390    4.8339 H       1  UNL1        0.0267
     28 H          11.1753    1.6222    4.7767 H       1  UNL1        0.0230
     29 H          11.1753    3.1100    5.6929 H       1  UNL1        0.0230
     30 H          11.1753    3.1596    3.9463 H       1  UNL1        0.0230
@<TRIPOS>BOND
     1     1     2    1
     2     2     3    1
     3     3     4    1
     4     4     5    1
     5     5     6    1
     6     6     7   am
     7     7     8    2
     8     7     9    1
     9     9    10    1
    10    10    11    1
    11     1    12    1
    12     1    13    1
    13     1    14    1
    14     2    15    1
    15     2    16    1
    16     3    17    1
    17     3    18    1
    18     4    19    1
    19     4    20    1
    20     5    21    1
    21     5    22    1
    22     6    23    1
    23     9    24    1
    24     9    25    1
    25    10    26    1
    26    10    27    1
    27    11    28    1
    28    11    29    1
    29    11    30    1
