@<TRIPOS>MOLECULE
*****
 44 43 0 0 0
SMALL
GASTEIGER

@<TRIPOS>ATOM
      1 C           1.0968    0.0138   -0.0211 C.3     1  UNL1       -0.0570
      2 C           2.6168    0.0138   -0.0211 C.3     1  UNL1        0.0211
      3 C           3.1234   -0.4293    1.3417 C.2     1  UNL1        0.2128
      4 O           2.2976   -0.7280    2.2604 O.2     1  UNL1       -0.2758
      5 N           4.5687   -0.5123    1.5972 N.am    1  UNL1       -0.3153
      6 C           5.0587   -0.9409    2.9152 C.3     1  UNL1        0.0116
      7 C           6.5787   -0.9409    2.9152 C.3     1  UNL1       -0.0374
      8 C           7.0853   -1.3840    4.2781 C.3     1  UNL1       -0.0516
      9 C           8.6053   -1.3840    4.2781 C.3     1  UNL1       -0.0530
     10 C           9.1120   -1.8270    5.6409 C.3     1  UNL1       -0.0530
     11 C          10.6320   -1.8270    5.6409 C.3     1  UNL1       -0.0516
     12 C          11.1387   -2.2701    7.0038 C.3     1  UNL1       -0.0374
     13 C          12.6587   -2.2701    7.0038 C.3     1  UNL1        0.0117
     14 N          13.1487   -2.6986    8.3218 N.am    1  UNL1       -0.3134
     15 C          14.5939   -2.7817    8.5772 C.2     1  UNL1        0.2385
     16 O          15.4198   -2.4830    7.6586 O.2     1  UNL1       -0.2733
     17 C          15.1006   -3.2248    9.9401 C.3     1  UNL1        0.1202
     18 O          16.5206   -3.2248    9.9401 O.3     1  UNL1       -0.3858
     19 H           0.7401    0.3257   -0.9805 H       1  UNL1        0.0234
     20 H           0.7401    0.6887    0.7287 H       1  UNL1        0.0234
     21 H           0.7401   -0.9730    0.1885 H       1  UNL1        0.0234
     22 H           2.9734    1.0006   -0.2307 H       1  UNL1        0.0356
     23 H           2.9734   -0.6611   -0.7709 H       1  UNL1        0.0356
     24 H           5.2084   -0.2810    0.8856 H       1  UNL1        0.1487
     25 H           4.7020   -1.9277    3.1248 H       1  UNL1        0.0462
     26 H           4.7020   -0.2660    3.6650 H       1  UNL1        0.0462
     27 H           6.9353    0.0459    2.7057 H       1  UNL1        0.0280
     28 H           6.9353   -1.6157    2.1654 H       1  UNL1        0.0280
     29 H           6.7287   -2.3708    4.4876 H       1  UNL1        0.0266
     30 H           6.7287   -0.7091    5.0279 H       1  UNL1        0.0266
     31 H           8.9620   -0.3972    4.0685 H       1  UNL1        0.0265
     32 H           8.9620   -2.0588    3.5283 H       1  UNL1        0.0265
     33 H           8.7553   -2.8138    5.8505 H       1  UNL1        0.0265
     34 H           8.7553   -1.1522    6.3907 H       1  UNL1        0.0265
     35 H          10.9887   -0.8402    5.4314 H       1  UNL1        0.0266
     36 H          10.9887   -2.5019    4.8911 H       1  UNL1        0.0266
     37 H          10.7820   -3.2569    7.2133 H       1  UNL1        0.0280
     38 H          10.7820   -1.5952    7.7536 H       1  UNL1        0.0280
     39 H          13.0153   -1.2833    6.7942 H       1  UNL1        0.0462
     40 H          13.0153   -2.9450    6.2540 H       1  UNL1        0.0462
     41 H          12.5089   -2.9300    9.0334 H       1  UNL1        0.1487
     42 H          14.7439   -4.2116   10.1497 H       1  UNL1        0.0654
     43 H          14.7439   -2.5499   10.6899 H       1  UNL1        0.0654
     44 H          16.8439   -3.8366    9.2604 H       1  UNL1        0.2100
@<TRIPOS>BOND
     1     1     2    1
     2     2     3    1
     3     3     4    2
     4     3     5   am
     5     5     6    1
     6     6     7    1
     7     7     8    1
     8     8     9    1
     9     9    10    1
    10    10    11    1
    11    11    12    1
    12    12    13    1
    13    13    14    1
    14    14    15   am
    15    15    16    2
    16    15    17    1
    17    17    18    1
    18     1    19    1
    19     1    20    1
    20     1    21    1
    21     2    22    1
    22     2    23    1
    23     5    24    1
    24     6    25    1
    25     6    26    1
    26     7    27    1
    27     7    28    1
    28     8    29    1
    29     8    30    1
    30     9    31    1
    31     9    32    1
    32    10    33    1
    33    10    34    1
    34    11    35    1
    35    11    36    1
    36    12    37    1
    37    12    38    1
    38    13    39    1
    39    13    40    1
    40    14    41    1
    41    17    42    1
    42    17    43    1
    43    18    44    1
