@<TRIPOS>MOLECULE
*****
 37 37 0 0 0
SMALL
GASTEIGER

@<TRIPOS>ATOM
      1 C           0.9747    0.0557   -0.0791 C.3     1  UNL1       -0.0632
      2 C           2.4947    0.0557   -0.0791 C.3     1  UNL1       -0.0323
      3 C           3.0014    0.2283    1.3435 C.3     1  UNL1        0.0474
      4 O           4.4214    0.2283    1.3435 O.3     1  UNL1       -0.3797
      5 C           4.8947    0.3895    2.6726 C.3     1  UNL1        0.0493
      6 C           6.4147    0.3895    2.6726 C.3     1  UNL1       -0.0098
      7 C           6.9214    0.5621    4.0952 C.3     1  UNL1        0.0453
      8 N           8.3914    0.5621    4.0952 N.ar    1  UNL1       -0.2514
      9 C           9.0878    0.7073    5.2927 C.ar    1  UNL1        0.0486
     10 C          10.5280    0.7073    5.2927 C.ar    1  UNL1        0.0829
     11 C          11.2880    0.5488    3.9859 C.3     1  UNL1       -0.0051
     12 C          10.3002    0.4097    2.8390 C.3     1  UNL1       -0.0242
     13 C          11.0602    0.2512    1.5322 C.3     1  UNL1        0.0446
     14 O          10.1375    0.1212    0.4608 O.3     1  UNL1       -0.3950
     15 N          11.2244    0.8526    6.4901 N.ar    1  UNL1       -0.1345
     16 N           9.0641    0.4218    2.9385 N.ar    1  UNL1       -0.0655
     17 H           0.6180   -0.0658   -1.0806 H       1  UNL1        0.0230
     18 H           0.6180    0.9838    0.3164 H       1  UNL1        0.0230
     19 H           0.6180   -0.7508    0.5268 H       1  UNL1        0.0230
     20 H           2.8514    0.8623   -0.6850 H       1  UNL1        0.0285
     21 H           2.8514   -0.8723   -0.4746 H       1  UNL1        0.0285
     22 H           2.6447   -0.5783    1.9495 H       1  UNL1        0.0560
     23 H           2.6447    1.1563    1.7391 H       1  UNL1        0.0560
     24 H           4.5380   -0.4171    3.2785 H       1  UNL1        0.0560
     25 H           4.5380    1.3175    3.0681 H       1  UNL1        0.0560
     26 H           6.7714    1.1961    2.0667 H       1  UNL1        0.0305
     27 H           6.7714   -0.5385    2.2771 H       1  UNL1        0.0305
     28 H           6.5647   -0.2445    4.7012 H       1  UNL1        0.0510
     29 H           6.5647    1.4901    4.4908 H       1  UNL1        0.0510
     30 H           8.5718    0.8149    6.1799 H       1  UNL1        0.0845
     31 H          11.9031   -0.3253    4.0348 H       1  UNL1        0.0330
     32 H          11.9031    1.4093    3.8244 H       1  UNL1        0.0330
     33 H           9.6851    1.2838    2.7901 H       1  UNL1        0.0291
     34 H           9.6851   -0.4508    3.0005 H       1  UNL1        0.0291
     35 H          11.6754   -0.6230    1.5811 H       1  UNL1        0.0557
     36 H          11.6754    1.1116    1.3707 H       1  UNL1        0.0557
     37 H           9.5798   -0.6588    0.6071 H       1  UNL1        0.2094
@<TRIPOS>BOND
     1     1     2    1
     2     2     3    1
     3     3     4    1
     4     4     5    1
     5     5     6    1
     6     6     7    1
     7     7     8    1
     8     8     9   ar
     9     9    10   ar
    10    10    11    1
    11    11    12    1
    12    12    13    1
    13    13    14    1
    14    10    15   ar
    15    15    16   ar
    16     8    16   ar
    17     1    17    1
    18     1    18    1
    19     1    19    1
    20     2    20    1
    21     2    21    1
    22     3    22    1
    23     3    23    1
    24     5    24    1
    25     5    25    1
    26     6    26    1
    27     6    27    1
    28     7    28    1
    29     7    29    1
    30     9    30    1
    31    11    31    1
    32    11    32    1
    33    12    33    1
    34    12    34    1
    35    13    35    1
    36    13    36    1
    37    14    37    1
