@<TRIPOS>MOLECULE
*****
 33 32 0 0 0
SMALL
GASTEIGER

@<TRIPOS>ATOM
      1 N           0.9952   -0.0631   -0.0774 N.3     1  UNL1       -0.3279
      2 C           2.4652   -0.0631   -0.0774 C.3     1  UNL1        0.0166
      3 C           2.9719   -1.0100    0.9983 C.3     1  UNL1        0.0600
      4 O           4.3919   -1.0100    0.9983 O.3     1  UNL1       -0.3763
      5 C           4.8652   -1.8946    2.0032 C.3     1  UNL1        0.0711
      6 C           6.3852   -1.8946    2.0032 C.3     1  UNL1        0.0711
      7 O           6.8585   -2.7792    3.0081 O.3     1  UNL1       -0.3752
      8 C           8.2785   -2.7792    3.0081 C.3     1  UNL1        0.0711
      9 C           8.7852   -3.7261    4.0838 C.3     1  UNL1        0.0710
     10 O          10.2052   -3.7261    4.0838 O.3     1  UNL1       -0.3771
     11 C          10.6785   -4.6107    5.0887 C.3     1  UNL1        0.0542
     12 C          12.1985   -4.6107    5.0887 C.3     1  UNL1        0.0262
     13 C          12.7052   -5.5576    6.1644 C.2     1  UNL1        0.1225
     14 O          13.9547   -5.7111    6.3387 O.2     1  UNL1       -0.3010
     15 H           0.6552    0.5723   -0.7992 H       1  UNL1        0.1183
     16 H           0.6552    0.2443    0.8338 H       1  UNL1        0.1183
     17 H           2.8219    0.9259    0.1213 H       1  UNL1        0.0444
     18 H           2.8219   -0.3856   -1.0333 H       1  UNL1        0.0444
     19 H           2.6152   -1.9991    0.7996 H       1  UNL1        0.0572
     20 H           2.6152   -0.6875    1.9541 H       1  UNL1        0.0572
     21 H           4.5085   -2.8837    1.8045 H       1  UNL1        0.0583
     22 H           4.5085   -1.5721    2.9591 H       1  UNL1        0.0583
     23 H           6.7419   -0.9056    2.2018 H       1  UNL1        0.0583
     24 H           6.7419   -2.2171    1.0473 H       1  UNL1        0.0583
     25 H           8.6352   -1.7902    3.2067 H       1  UNL1        0.0583
     26 H           8.6352   -3.1017    2.0522 H       1  UNL1        0.0583
     27 H           8.4285   -4.7152    3.8851 H       1  UNL1        0.0583
     28 H           8.4285   -3.4036    5.0396 H       1  UNL1        0.0583
     29 H          10.3219   -5.5998    4.8900 H       1  UNL1        0.0564
     30 H          10.3219   -4.2882    6.0446 H       1  UNL1        0.0564
     31 H          12.5552   -3.6217    5.2873 H       1  UNL1        0.0361
     32 H          12.5552   -4.9332    4.1328 H       1  UNL1        0.0361
     33 H          12.0346   -6.0759    6.7531 H       1  UNL1        0.1027
@<TRIPOS>BOND
     1     1     2    1
     2     2     3    1
     3     3     4    1
     4     4     5    1
     5     5     6    1
     6     6     7    1
     7     7     8    1
     8     8     9    1
     9     9    10    1
    10    10    11    1
    11    11    12    1
    12    12    13    1
    13    13    14    2
    14     1    15    1
    15     1    16    1
    16     2    17    1
    17     2    18    1
    18     3    19    1
    19     3    20    1
    20     5    21    1
    21     5    22    1
    22     6    23    1
    23     6    24    1
    24     8    25    1
    25     8    26    1
    26     9    27    1
    27     9    28    1
    28    11    29    1
    29    11    30    1
    30    12    31    1
    31    12    32    1
    32    13    33    1
