@<TRIPOS>MOLECULE
*****
 42 42 0 0 0
SMALL
GASTEIGER

@<TRIPOS>ATOM
      1 C           1.0901    0.0259    0.0347 C.3     1  UNL1       -0.0653
      2 C           2.6101    0.0259    0.0347 C.3     1  UNL1       -0.0559
      3 C           3.1168   -1.2792   -0.5572 C.3     1  UNL1       -0.0533
      4 C           4.6368   -1.2792   -0.5572 C.3     1  UNL1       -0.0531
      5 C           5.1435   -2.5843   -1.1491 C.3     1  UNL1       -0.0526
      6 C           6.6635   -2.5843   -1.1491 C.3     1  UNL1       -0.0448
      7 C           7.1701   -3.8894   -1.7411 C.3     1  UNL1        0.0242
      8 C           8.6901   -3.8894   -1.7411 C.2     1  UNL1        0.2156
      9 O           9.3256   -2.8871   -1.2864 O.2     1  UNL1       -0.2756
     10 N           9.4251   -5.0488   -2.2669 N.am    1  UNL1       -0.2990
     11 C          10.8951   -5.0488   -2.2669 C.3     1  UNL1        0.0275
     12 C          11.4018   -6.3539   -2.8588 C.3     1  UNL1        0.0145
     13 N          12.8718   -6.3539   -2.8588 N.3     1  UNL1       -0.3024
     14 C          13.3618   -6.2186   -1.4795 C.3     1  UNL1       -0.0126
     15 C          13.3618   -7.6161   -3.4313 C.3     1  UNL1        0.0145
     16 C           8.6901   -6.2082   -2.7927 C.3     1  UNL1        0.0275
     17 H           0.7335    0.9446    0.4514 H       1  UNL1        0.0230
     18 H           0.7335   -0.7943    0.6220 H       1  UNL1        0.0230
     19 H           0.7335   -0.0726   -0.9692 H       1  UNL1        0.0230
     20 H           2.9668    0.1244    1.0387 H       1  UNL1        0.0263
     21 H           2.9668    0.8461   -0.5526 H       1  UNL1        0.0263
     22 H           2.7601   -1.3777   -1.5612 H       1  UNL1        0.0265
     23 H           2.7601   -2.0994    0.0301 H       1  UNL1        0.0265
     24 H           4.9935   -1.1807    0.4468 H       1  UNL1        0.0265
     25 H           4.9935   -0.4590   -1.1445 H       1  UNL1        0.0265
     26 H           4.7868   -2.6828   -2.1531 H       1  UNL1        0.0265
     27 H           4.7868   -3.4046   -0.5618 H       1  UNL1        0.0265
     28 H           7.0201   -2.4858   -0.1451 H       1  UNL1        0.0270
     29 H           7.0201   -1.7641   -1.7364 H       1  UNL1        0.0270
     30 H           6.8134   -3.9879   -2.7450 H       1  UNL1        0.0358
     31 H           6.8134   -4.7097   -1.1538 H       1  UNL1        0.0358
     32 H          11.2518   -4.9503   -1.2629 H       1  UNL1        0.0477
     33 H          11.2518   -4.2286   -2.8542 H       1  UNL1        0.0477
     34 H          11.0451   -6.4524   -3.8628 H       1  UNL1        0.0442
     35 H          11.0451   -7.1742   -2.2715 H       1  UNL1        0.0442
     36 H          13.0051   -5.2999   -1.0628 H       1  UNL1        0.0391
     37 H          14.4318   -6.2186   -1.4795 H       1  UNL1        0.0391
     38 H          13.0051   -7.0388   -0.8922 H       1  UNL1        0.0391
     39 H          13.8030   -8.3707   -2.8142 H       1  UNL1        0.0442
     40 H          13.9967   -7.9367   -4.2307 H       1  UNL1        0.0442
     41 H           8.1128   -6.7693   -2.0879 H       1  UNL1        0.0477
     42 H           7.9239   -6.1899   -3.5394 H       1  UNL1        0.0477
@<TRIPOS>BOND
     1     1     2    1
     2     2     3    1
     3     3     4    1
     4     4     5    1
     5     5     6    1
     6     6     7    1
     7     7     8    1
     8     8     9    2
     9     8    10   am
    10    10    11    1
    11    11    12    1
    12    12    13    1
    13    13    14    1
    14    13    15    1
    15    15    16    1
    16    10    16    1
    17     1    17    1
    18     1    18    1
    19     1    19    1
    20     2    20    1
    21     2    21    1
    22     3    22    1
    23     3    23    1
    24     4    24    1
    25     4    25    1
    26     5    26    1
    27     5    27    1
    28     6    28    1
    29     6    29    1
    30     7    30    1
    31     7    31    1
    32    11    32    1
    33    11    33    1
    34    12    34    1
    35    12    35    1
    36    14    36    1
    37    14    37    1
    38    14    38    1
    39    15    39    1
    40    15    40    1
    41    16    41    1
    42    16    42    1
