@<TRIPOS>MOLECULE
*****
 18 17 0 0 0
SMALL
GASTEIGER

@<TRIPOS>ATOM
      1 N           0.9281    0.0637    0.0277 N.3     1  UNL1       -0.3300
      2 C           2.3981    0.0637    0.0277 C.3     1  UNL1       -0.0069
      3 C           2.9047   -1.1621    0.7700 C.3     1  UNL1       -0.0395
      4 C           4.4247   -1.1621    0.7700 C.3     1  UNL1       -0.0395
      5 C           4.9314   -2.3880    1.5123 C.3     1  UNL1       -0.0069
      6 N           6.4014   -2.3880    1.5123 N.3     1  UNL1       -0.3300
      7 H           0.5881    0.8863   -0.4704 H       1  UNL1        0.1182
      8 H           0.5881    0.0838    0.9892 H       1  UNL1        0.1182
      9 H           2.7548    0.9477    0.5138 H       1  UNL1        0.0422
     10 H           2.7548    0.0426   -0.9809 H       1  UNL1        0.0422
     11 H           2.5481   -2.0461    0.2840 H       1  UNL1        0.0278
     12 H           2.5481   -1.1411    1.7786 H       1  UNL1        0.0278
     13 H           4.7814   -0.2781    1.2561 H       1  UNL1        0.0278
     14 H           4.7814   -1.1832   -0.2386 H       1  UNL1        0.0278
     15 H           4.5747   -3.2720    1.0263 H       1  UNL1        0.0422
     16 H           4.5747   -2.3669    2.5209 H       1  UNL1        0.0422
     17 H           6.7414   -2.4080    0.5509 H       1  UNL1        0.1182
     18 H           6.7414   -3.2106    2.0105 H       1  UNL1        0.1182
@<TRIPOS>BOND
     1     1     2    1
     2     2     3    1
     3     3     4    1
     4     4     5    1
     5     5     6    1
     6     1     7    1
     7     1     8    1
     8     2     9    1
     9     2    10    1
    10     3    11    1
    11     3    12    1
    12     4    13    1
    13     4    14    1
    14     5    15    1
    15     5    16    1
    16     6    17    1
    17     6    18    1
