@<TRIPOS>MOLECULE
*****
 27 26 0 0 0
SMALL
GASTEIGER

@<TRIPOS>ATOM
      1 C           1.0295    0.0497    0.0816 C.3     1  UNL1       -0.0653
      2 C           2.5495    0.0497    0.0816 C.3     1  UNL1       -0.0559
      3 C           3.0562   -0.4146   -1.2742 C.3     1  UNL1       -0.0533
      4 C           4.5762   -0.4146   -1.2742 C.3     1  UNL1       -0.0526
      5 C           5.0828   -0.8788   -2.6300 C.3     1  UNL1       -0.0448
      6 C           6.6028   -0.8788   -2.6300 C.3     1  UNL1        0.0239
      7 C           7.1095   -1.3431   -3.9857 C.2     1  UNL1        0.2128
      8 O           6.2836   -1.6560   -4.8996 O.2     1  UNL1       -0.2758
      9 N           8.5547   -1.4301   -4.2399 N.am    1  UNL1       -0.3184
     10 C           9.0447   -1.8791   -5.5511 C.3     1  UNL1        0.0001
     11 H           0.6728    0.3765    1.0360 H       1  UNL1        0.0230
     12 H           0.6728   -0.9403   -0.1126 H       1  UNL1        0.0230
     13 H           0.6728    0.7128   -0.6786 H       1  UNL1        0.0230
     14 H           2.9062   -0.6135    0.8418 H       1  UNL1        0.0263
     15 H           2.9062    1.0396    0.2758 H       1  UNL1        0.0263
     16 H           2.6995    0.2486   -2.0344 H       1  UNL1        0.0265
     17 H           2.6995   -1.4045   -1.4683 H       1  UNL1        0.0265
     18 H           4.9328   -1.0777   -0.5139 H       1  UNL1        0.0265
     19 H           4.9328    0.5754   -1.0800 H       1  UNL1        0.0265
     20 H           4.7261   -0.2157   -3.3902 H       1  UNL1        0.0270
     21 H           4.7261   -1.8688   -2.8241 H       1  UNL1        0.0270
     22 H           6.9595   -1.5420   -1.8697 H       1  UNL1        0.0358
     23 H           6.9595    0.1111   -2.4358 H       1  UNL1        0.0358
     24 H           9.1945   -1.1877   -3.5319 H       1  UNL1        0.1484
     25 H           8.2125   -2.0970   -6.1873 H       1  UNL1        0.0426
     26 H           9.6392   -2.7601   -5.4271 H       1  UNL1        0.0426
     27 H           9.6392   -1.1070   -5.9932 H       1  UNL1        0.0426
@<TRIPOS>BOND
     1     1     2    1
     2     2     3    1
     3     3     4    1
     4     4     5    1
     5     5     6    1
     6     6     7    1
     7     7     8    2
     8     7     9   am
     9     9    10    1
    10     1    11    1
    11     1    12    1
    12     1    13    1
    13     2    14    1
    14     2    15    1
    15     3    16    1
    16     3    17    1
    17     4    18    1
    18     4    19    1
    19     5    20    1
    20     5    21    1
    21     6    22    1
    22     6    23    1
    23     9    24    1
    24    10    25    1
    25    10    26    1
    26    10    27    1
