@<TRIPOS>MOLECULE
*****
 22 22 0 0 0
SMALL
GASTEIGER

@<TRIPOS>ATOM
      1 C           1.0894   -0.0001    0.0449 C.3     1  UNL1       -0.0307
      2 C           2.6094   -0.0001    0.0449 C.3     1  UNL1        0.0868
      3 O           3.0827   -0.8315    1.0942 O.3     1  UNL1       -0.4922
      4 C           4.4788   -0.9927    1.2976 C.ar    1  UNL1        0.1205
      5 C           4.9588   -1.8360    2.3618 C.ar    1  UNL1       -0.0197
      6 C           6.3748   -1.9994    2.5681 C.ar    1  UNL1       -0.0554
      7 C           6.8549   -2.8427    3.6323 C.ar    1  UNL1       -0.0502
      8 C           5.8671   -3.5602    4.5378 C.3     1  UNL1       -0.0397
      9 C           8.2708   -3.0061    3.8386 C.ar    1  UNL1       -0.0554
     10 C           5.4147   -0.3128    0.4396 C.ar    1  UNL1       -0.0197
     11 H           0.7327    0.6264   -0.7458 H       1  UNL1        0.0262
     12 H           0.7327    0.3714    0.9828 H       1  UNL1        0.0262
     13 H           0.7327   -0.9981   -0.1024 H       1  UNL1        0.0262
     14 H           2.9660    0.9979    0.1921 H       1  UNL1        0.0694
     15 H           2.9660   -0.3716   -0.8930 H       1  UNL1        0.0694
     16 H           4.2882   -2.3231    2.9766 H       1  UNL1        0.0654
     17 H           7.0454   -1.5122    1.9533 H       1  UNL1        0.0621
     18 H           4.8686   -3.3214    4.2365 H       1  UNL1        0.0278
     19 H           6.0187   -3.2474    5.5498 H       1  UNL1        0.0278
     20 H           6.0187   -4.6168    4.4646 H       1  UNL1        0.0278
     21 H           9.1306   -3.3606    4.2860 H       1  UNL1        0.0621
     22 H           5.4791    0.3268   -0.3677 H       1  UNL1        0.0654
@<TRIPOS>BOND
     1     1     2    1
     2     2     3    1
     3     3     4    1
     4     4     5   ar
     5     5     6   ar
     6     6     7   ar
     7     7     8    1
     8     7     9   ar
     9     9    10   ar
    10     4    10   ar
    11     1    11    1
    12     1    12    1
    13     1    13    1
    14     2    14    1
    15     2    15    1
    16     5    16    1
    17     6    17    1
    18     8    18    1
    19     8    19    1
    20     8    20    1
    21     9    21    1
    22    10    22    1
