@<TRIPOS>MOLECULE
*****
 40 39 0 0 0
SMALL
GASTEIGER

@<TRIPOS>ATOM
      1 C           1.0494    0.0486    0.0721 C.3     1  UNL1       -0.0570
      2 C           2.5694    0.0486    0.0721 C.3     1  UNL1        0.0211
      3 C           3.0760   -1.0267    1.0194 C.2     1  UNL1        0.2128
      4 O           2.2501   -1.7515    1.6580 O.2     1  UNL1       -0.2758
      5 N           4.5213   -1.2282    1.1970 N.am    1  UNL1       -0.3131
      6 C           5.0113   -2.2682    2.1132 C.3     1  UNL1        0.0350
      7 C           6.5313   -2.2682    2.1132 C.3     1  UNL1        0.0632
      8 O           7.0046   -3.2727    2.9982 O.3     1  UNL1       -0.3760
      9 C           8.4246   -3.2727    2.9982 C.3     1  UNL1        0.0711
     10 C           8.9312   -4.3480    3.9455 C.3     1  UNL1        0.0711
     11 O          10.3512   -4.3480    3.9455 O.3     1  UNL1       -0.3752
     12 C          10.8246   -5.3526    4.8305 C.3     1  UNL1        0.0711
     13 C          12.3446   -5.3526    4.8305 C.3     1  UNL1        0.0711
     14 O          12.8179   -6.3571    5.7155 O.3     1  UNL1       -0.3752
     15 C          14.2379   -6.3571    5.7155 C.3     1  UNL1        0.0708
     16 C          14.7446   -7.4324    6.6628 C.3     1  UNL1        0.0676
     17 O          16.1646   -7.4324    6.6628 O.3     1  UNL1       -0.3927
     18 H           0.6927    0.8056   -0.5947 H       1  UNL1        0.0234
     19 H           0.6927    0.2477    1.0611 H       1  UNL1        0.0234
     20 H           0.6927   -0.9074   -0.2500 H       1  UNL1        0.0234
     21 H           2.9260    1.0046    0.3942 H       1  UNL1        0.0356
     22 H           2.9260   -0.1504   -0.9169 H       1  UNL1        0.0356
     23 H           5.1610   -0.6668    0.7024 H       1  UNL1        0.1488
     24 H           4.6546   -3.2242    1.7911 H       1  UNL1        0.0484
     25 H           4.6546   -2.0691    3.1022 H       1  UNL1        0.0484
     26 H           6.8879   -1.3122    2.4353 H       1  UNL1        0.0575
     27 H           6.8879   -2.4672    1.1242 H       1  UNL1        0.0575
     28 H           8.7813   -2.3167    3.3203 H       1  UNL1        0.0583
     29 H           8.7813   -3.4718    2.0092 H       1  UNL1        0.0583
     30 H           8.5746   -5.3040    3.6234 H       1  UNL1        0.0583
     31 H           8.5746   -4.1490    4.9345 H       1  UNL1        0.0583
     32 H          10.4679   -6.3086    4.5084 H       1  UNL1        0.0583
     33 H          10.4679   -5.1535    5.8195 H       1  UNL1        0.0583
     34 H          12.7012   -4.3966    5.1526 H       1  UNL1        0.0583
     35 H          12.7012   -5.5516    3.8415 H       1  UNL1        0.0583
     36 H          14.5946   -5.4011    6.0376 H       1  UNL1        0.0583
     37 H          14.5946   -6.5562    4.7265 H       1  UNL1        0.0583
     38 H          14.3879   -8.3884    6.3407 H       1  UNL1        0.0580
     39 H          14.3879   -7.2334    7.6518 H       1  UNL1        0.0580
     40 H          16.4879   -7.6129    5.7663 H       1  UNL1        0.2095
@<TRIPOS>BOND
     1     1     2    1
     2     2     3    1
     3     3     4    2
     4     3     5   am
     5     5     6    1
     6     6     7    1
     7     7     8    1
     8     8     9    1
     9     9    10    1
    10    10    11    1
    11    11    12    1
    12    12    13    1
    13    13    14    1
    14    14    15    1
    15    15    16    1
    16    16    17    1
    17     1    18    1
    18     1    19    1
    19     1    20    1
    20     2    21    1
    21     2    22    1
    22     5    23    1
    23     6    24    1
    24     6    25    1
    25     7    26    1
    26     7    27    1
    27     9    28    1
    28     9    29    1
    29    10    30    1
    30    10    31    1
    31    12    32    1
    32    12    33    1
    33    13    34    1
    34    13    35    1
    35    15    36    1
    36    15    37    1
    37    16    38    1
    38    16    39    1
    39    17    40    1
