@<TRIPOS>MOLECULE
*****
 26 25 0 0 0
SMALL
GASTEIGER

@<TRIPOS>ATOM
      1 N           0.9457   -0.0765    0.0346 N.3     1  UNL1       -0.3300
      2 C           2.4157   -0.0765    0.0346 C.3     1  UNL1       -0.0069
      3 C           2.9224   -0.3220   -1.3773 C.3     1  UNL1       -0.0406
      4 C           4.4424   -0.3220   -1.3773 C.3     1  UNL1       -0.0519
      5 C           4.9490   -0.5676   -2.7892 C.3     1  UNL1       -0.0516
      6 C           6.4690   -0.5676   -2.7892 C.3     1  UNL1       -0.0374
      7 C           6.9757   -0.8131   -4.2011 C.3     1  UNL1        0.0113
      8 N           8.4457   -0.8131   -4.2011 N.am    1  UNL1       -0.3179
      9 C           9.1807   -1.0312   -5.4553 C.2     1  UNL1        0.1999
     10 O          10.4516   -1.0312   -5.4553 O.2     1  UNL1       -0.2795
     11 H           0.6057    0.0882    0.9820 H       1  UNL1        0.1182
     12 H           0.6057   -0.9794   -0.2964 H       1  UNL1        0.1182
     13 H           2.7724   -0.8508    0.6812 H       1  UNL1        0.0422
     14 H           2.7724    0.8706    0.3818 H       1  UNL1        0.0422
     15 H           2.5657    0.4523   -2.0239 H       1  UNL1        0.0277
     16 H           2.5657   -1.2692   -1.7246 H       1  UNL1        0.0277
     17 H           4.7990   -1.0964   -0.7307 H       1  UNL1        0.0266
     18 H           4.7990    0.6251   -1.0300 H       1  UNL1        0.0266
     19 H           4.5924    0.2067   -3.4358 H       1  UNL1        0.0266
     20 H           4.5924   -1.5147   -3.1364 H       1  UNL1        0.0266
     21 H           6.8257   -1.3419   -2.1426 H       1  UNL1        0.0280
     22 H           6.8257    0.3796   -2.4419 H       1  UNL1        0.0280
     23 H           6.6190   -0.0388   -4.8477 H       1  UNL1        0.0462
     24 H           6.6190   -1.7603   -4.5483 H       1  UNL1        0.0462
     25 H           8.9379   -0.6670   -3.3611 H       1  UNL1        0.1484
     26 H           8.6647   -1.1843   -6.3358 H       1  UNL1        0.1251
@<TRIPOS>BOND
     1     1     2    1
     2     2     3    1
     3     3     4    1
     4     4     5    1
     5     5     6    1
     6     6     7    1
     7     7     8    1
     8     8     9   am
     9     9    10    2
    10     1    11    1
    11     1    12    1
    12     2    13    1
    13     2    14    1
    14     3    15    1
    15     3    16    1
    16     4    17    1
    17     4    18    1
    18     5    19    1
    19     5    20    1
    20     6    21    1
    21     6    22    1
    22     7    23    1
    23     7    24    1
    24     8    25    1
    25     9    26    1
