@<TRIPOS>MOLECULE
*****
 36 37 0 0 0
SMALL
GASTEIGER

@<TRIPOS>ATOM
      1 C           1.0264    0.0623    0.0736 C.3     1  UNL1       -0.0622
      2 C           2.5464    0.0623    0.0736 C.3     1  UNL1       -0.0215
      3 C           3.0530    1.2449   -0.7359 C.3     1  UNL1        0.0893
      4 O           4.4730    1.2449   -0.7359 O.3     1  UNL1       -0.4920
      5 C           5.1830    2.2597   -1.4305 C.ar    1  UNL1        0.1206
      6 C           6.6232    2.2597   -1.4305 C.ar    1  UNL1       -0.0179
      7 C           7.3433    3.2889   -2.1350 C.ar    1  UNL1       -0.0311
      8 C           8.7835    3.2889   -2.1350 C.ar    1  UNL1        0.0864
      9 N           9.5185    2.2384   -1.4159 N.2     1  UNL1       -0.1493
     10 N           8.8831    1.3302   -0.7942 N.2     1  UNL1       -0.1493
     11 C           9.6181    0.2796   -0.0751 C.ar    1  UNL1        0.0862
     12 C           8.8980   -0.7496    0.6294 C.ar    1  UNL1       -0.0339
     13 C           9.6181   -1.7788    1.3339 C.ar    1  UNL1       -0.0495
     14 C           8.8980   -2.8080    2.0384 C.ar    1  UNL1        0.0143
     15 C           7.3780   -2.8080    2.0384 C.2     1  UNL1        0.1502
     16 O           6.7425   -1.8998    1.4167 O.2     1  UNL1       -0.2957
     17 C           9.6181   -3.8373    2.7429 C.ar    1  UNL1       -0.0495
     18 C          11.0583    0.2796   -0.0751 C.ar    1  UNL1       -0.0339
     19 C           9.5036    4.3181   -2.8395 C.ar    1  UNL1       -0.0311
     20 C           4.4629    3.2889   -2.1350 C.ar    1  UNL1       -0.0179
     21 H           0.6697   -0.7701    0.6434 H       1  UNL1        0.0231
     22 H           0.6697   -0.0149   -0.9322 H       1  UNL1        0.0231
     23 H           0.6697    0.9720    0.5096 H       1  UNL1        0.0231
     24 H           2.9030   -0.8474   -0.3624 H       1  UNL1        0.0295
     25 H           2.9030    0.1396    1.0795 H       1  UNL1        0.0295
     26 H           2.6964    2.1546   -0.2998 H       1  UNL1        0.0696
     27 H           2.6964    1.1677   -1.7417 H       1  UNL1        0.0696
     28 H           7.1392    1.5222   -0.9257 H       1  UNL1        0.0655
     29 H           6.8273    4.0264   -2.6398 H       1  UNL1        0.0640
     30 H           7.8660   -0.7496    0.6294 H       1  UNL1        0.0639
     31 H          10.6501   -1.7788    1.3339 H       1  UNL1        0.0625
     32 H           6.8620   -3.5455    2.5432 H       1  UNL1        0.1081
     33 H           9.7429   -4.6826    3.3215 H       1  UNL1        0.0625
     34 H          11.8830    0.7915   -0.4255 H       1  UNL1        0.0639
     35 H          10.3284    4.8300   -3.1899 H       1  UNL1        0.0640
     36 H           3.5133    3.6224   -2.3632 H       1  UNL1        0.0655
@<TRIPOS>BOND
     1     1     2    1
     2     2     3    1
     3     3     4    1
     4     4     5    1
     5     5     6   ar
     6     6     7   ar
     7     7     8   ar
     8     8     9    1
     9     9    10    2
    10    10    11    1
    11    11    12   ar
    12    12    13   ar
    13    13    14   ar
    14    14    15    1
    15    15    16    2
    16    14    17   ar
    17    17    18   ar
    18    11    18   ar
    19     8    19   ar
    20    19    20   ar
    21     5    20   ar
    22     1    21    1
    23     1    22    1
    24     1    23    1
    25     2    24    1
    26     2    25    1
    27     3    26    1
    28     3    27    1
    29     6    28    1
    30     7    29    1
    31    12    30    1
    32    13    31    1
    33    15    32    1
    34    17    33    1
    35    18    34    1
    36    19    35    1
    37    20    36    1
