@<TRIPOS>MOLECULE
*****
 19 18 0 0 0
SMALL
GASTEIGER

@<TRIPOS>ATOM
      1 C           1.0135    0.0617   -0.0775 C.3     1  UNL1       -0.0416
      2 C           2.5335    0.0617   -0.0775 C.3     1  UNL1        0.0449
      3 O           3.0069    1.3940    0.0539 O.3     1  UNL1       -0.3778
      4 C           4.4269    1.3940    0.0539 C.3     1  UNL1        0.0710
      5 C           4.9335    2.8202    0.1946 C.3     1  UNL1        0.0706
      6 O           6.3535    2.8202    0.1946 O.3     1  UNL1       -0.3807
      7 C           6.8269    4.1525    0.3260 C.3     1  UNL1        0.0365
      8 H           0.6569   -0.9422   -0.1766 H       1  UNL1        0.0252
      9 H           0.6569    0.6494   -0.8974 H       1  UNL1        0.0252
     10 H           0.6569    0.4779    0.8414 H       1  UNL1        0.0252
     11 H           2.8902   -0.3545   -0.9965 H       1  UNL1        0.0557
     12 H           2.8902   -0.5260    0.7424 H       1  UNL1        0.0557
     13 H           4.7835    0.9778   -0.8650 H       1  UNL1        0.0583
     14 H           4.7835    0.8063    0.8738 H       1  UNL1        0.0583
     15 H           4.5769    3.2364    1.1136 H       1  UNL1        0.0582
     16 H           4.5769    3.4079   -0.6253 H       1  UNL1        0.0582
     17 H           7.8969    4.1525    0.3260 H       1  UNL1        0.0524
     18 H           6.4702    4.5687    1.2450 H       1  UNL1        0.0524
     19 H           6.4702    4.7402   -0.4939 H       1  UNL1        0.0524
@<TRIPOS>BOND
     1     1     2    1
     2     2     3    1
     3     3     4    1
     4     4     5    1
     5     5     6    1
     6     6     7    1
     7     1     8    1
     8     1     9    1
     9     1    10    1
    10     2    11    1
    11     2    12    1
    12     4    13    1
    13     4    14    1
    14     5    15    1
    15     5    16    1
    16     7    17    1
    17     7    18    1
    18     7    19    1
