@<TRIPOS>MOLECULE
*****
 60 60 0 0 0
SMALL
GASTEIGER

@<TRIPOS>ATOM
      1 C           1.0390    0.0571    0.0722 C.3     1  UNL1       -0.0649
      2 C           2.5590    0.0571    0.0722 C.3     1  UNL1       -0.0504
      3 C           3.0657    0.5030    1.4342 C.3     1  UNL1       -0.0074
      4 C           4.5857    0.5030    1.4342 C.ar    1  UNL1        0.0828
      5 C           5.3058    0.8912    2.6195 C.ar    1  UNL1        0.0487
      6 N           6.6986    0.8912    2.6195 N.ar    1  UNL1       -0.2492
      7 C           7.4336    0.4950    1.4096 C.3     1  UNL1        0.0665
      8 C           6.4459    0.1355    0.3117 C.3     1  UNL1        0.0673
      9 O           7.1559   -0.2472   -0.8570 O.3     1  UNL1       -0.3757
     10 C           6.2331   -0.5831   -1.8827 C.3     1  UNL1        0.0711
     11 C           6.9931   -0.9927   -3.1337 C.3     1  UNL1        0.0711
     12 O           6.0703   -1.3286   -4.1594 O.3     1  UNL1       -0.3752
     13 C           6.7803   -1.7113   -5.3281 C.3     1  UNL1        0.0711
     14 C           5.7926   -2.0708   -6.4261 C.3     1  UNL1        0.0711
     15 O           6.5026   -2.4535   -7.5948 O.3     1  UNL1       -0.3752
     16 C           5.5798   -2.7894   -8.6205 C.3     1  UNL1        0.0711
     17 C           6.3398   -3.1990   -9.8715 C.3     1  UNL1        0.0711
     18 O           5.4171   -3.5349  -10.8972 O.3     1  UNL1       -0.3752
     19 C           6.1271   -3.9176  -12.0659 C.3     1  UNL1        0.0711
     20 C           5.1393   -4.2771  -13.1639 C.3     1  UNL1        0.0711
     21 O           5.8493   -4.6598  -14.3326 O.3     1  UNL1       -0.3763
     22 C           4.9266   -4.9957  -15.3583 C.3     1  UNL1        0.0600
     23 C           5.6866   -5.4054  -16.6093 C.3     1  UNL1        0.0166
     24 N           4.7313   -5.7531  -17.6711 N.3     1  UNL1       -0.3279
     25 N           7.3713    1.2538    3.7268 N.ar    1  UNL1       -0.0654
     26 N           5.2821    0.1277    0.2878 N.ar    1  UNL1       -0.1345
     27 H           0.6824   -0.2569   -0.8865 H       1  UNL1        0.0230
     28 H           0.6824    1.0443    0.2797 H       1  UNL1        0.0230
     29 H           0.6824   -0.6162    0.8235 H       1  UNL1        0.0230
     30 H           2.9157    0.7304   -0.6790 H       1  UNL1        0.0266
     31 H           2.9157   -0.9302   -0.1352 H       1  UNL1        0.0266
     32 H           2.7090   -0.1703    2.1854 H       1  UNL1        0.0329
     33 H           2.7090    1.4903    1.6416 H       1  UNL1        0.0329
     34 H           4.7898    1.1693    3.4688 H       1  UNL1        0.0845
     35 H           8.0488   -0.3529    1.6276 H       1  UNL1        0.0532
     36 H           8.0488    1.3076    1.0839 H       1  UNL1        0.0532
     37 H           5.8307    0.9834    0.0937 H       1  UNL1        0.0578
     38 H           5.8307   -0.6771    0.6374 H       1  UNL1        0.0578
     39 H           5.6179    0.2648   -2.1007 H       1  UNL1        0.0583
     40 H           5.6179   -1.3957   -1.5570 H       1  UNL1        0.0583
     41 H           7.6083   -1.8406   -2.9157 H       1  UNL1        0.0583
     42 H           7.6083   -0.1801   -3.4595 H       1  UNL1        0.0583
     43 H           7.3955   -2.5592   -5.1101 H       1  UNL1        0.0583
     44 H           7.3955   -0.8987   -5.6539 H       1  UNL1        0.0583
     45 H           5.1774   -1.2229   -6.6441 H       1  UNL1        0.0583
     46 H           5.1774   -2.8835   -6.1003 H       1  UNL1        0.0583
     47 H           4.9647   -1.9415   -8.8385 H       1  UNL1        0.0583
     48 H           4.9647   -3.6020   -8.2948 H       1  UNL1        0.0583
     49 H           6.9550   -4.0470   -9.6535 H       1  UNL1        0.0583
     50 H           6.9550   -2.3864  -10.1972 H       1  UNL1        0.0583
     51 H           6.7422   -4.7655  -11.8479 H       1  UNL1        0.0583
     52 H           6.7422   -3.1050  -12.3917 H       1  UNL1        0.0583
     53 H           4.5242   -3.4292  -13.3819 H       1  UNL1        0.0583
     54 H           4.5242   -5.0898  -12.8381 H       1  UNL1        0.0583
     55 H           4.3114   -4.1478  -15.5763 H       1  UNL1        0.0572
     56 H           4.3114   -5.8083  -15.0325 H       1  UNL1        0.0572
     57 H           6.3017   -6.2533  -16.3913 H       1  UNL1        0.0444
     58 H           6.3017   -4.5927  -16.9350 H       1  UNL1        0.0444
     59 H           4.1449   -6.5277  -17.3606 H       1  UNL1        0.1183
     60 H           5.2413   -6.0280  -18.5106 H       1  UNL1        0.1183
@<TRIPOS>BOND
     1     1     2    1
     2     2     3    1
     3     3     4    1
     4     4     5   ar
     5     5     6   ar
     6     6     7    1
     7     7     8    1
     8     8     9    1
     9     9    10    1
    10    10    11    1
    11    11    12    1
    12    12    13    1
    13    13    14    1
    14    14    15    1
    15    15    16    1
    16    16    17    1
    17    17    18    1
    18    18    19    1
    19    19    20    1
    20    20    21    1
    21    21    22    1
    22    22    23    1
    23    23    24    1
    24     6    25   ar
    25    25    26   ar
    26     4    26   ar
    27     1    27    1
    28     1    28    1
    29     1    29    1
    30     2    30    1
    31     2    31    1
    32     3    32    1
    33     3    33    1
    34     5    34    1
    35     7    35    1
    36     7    36    1
    37     8    37    1
    38     8    38    1
    39    10    39    1
    40    10    40    1
    41    11    41    1
    42    11    42    1
    43    13    43    1
    44    13    44    1
    45    14    45    1
    46    14    46    1
    47    16    47    1
    48    16    48    1
    49    17    49    1
    50    17    50    1
    51    19    51    1
    52    19    52    1
    53    20    53    1
    54    20    54    1
    55    22    55    1
    56    22    56    1
    57    23    57    1
    58    23    58    1
    59    24    59    1
    60    24    60    1
