@<TRIPOS>MOLECULE
*****
 42 42 0 0 0
SMALL
GASTEIGER

@<TRIPOS>ATOM
      1 C           0.9836   -0.0949   -0.0270 C.3     1  UNL1        0.0121
      2 C           2.5036   -0.0949   -0.0270 C.2     1  UNL1        0.2100
      3 O           3.1391    0.8458   -0.5983 O.2     1  UNL1       -0.2761
      4 N           3.2386   -1.1830    0.6338 N.am    1  UNL1       -0.3133
      5 C           4.7086   -1.1830    0.6338 C.3     1  UNL1        0.0350
      6 C           5.2153   -2.4079    1.3777 C.3     1  UNL1        0.0632
      7 O           6.6353   -2.4079    1.3777 O.3     1  UNL1       -0.3760
      8 C           7.1086   -3.5522    2.0727 C.3     1  UNL1        0.0711
      9 C           8.6286   -3.5522    2.0727 C.3     1  UNL1        0.0711
     10 O           9.1020   -4.6964    2.7676 O.3     1  UNL1       -0.3752
     11 C          10.5220   -4.6964    2.7676 C.3     1  UNL1        0.0711
     12 C          11.0286   -5.9213    3.5115 C.3     1  UNL1        0.0711
     13 O          12.4486   -5.9213    3.5115 O.3     1  UNL1       -0.3757
     14 C          12.9219   -7.0656    4.2065 C.3     1  UNL1        0.0673
     15 C          14.4419   -7.0656    4.2065 C.3     1  UNL1        0.0665
     16 N          14.9319   -8.2502    4.9259 N.ar    1  UNL1       -0.2495
     17 C          16.3013   -8.4677    5.0580 C.ar    1  UNL1        0.0455
     18 C          16.7814   -9.6283    5.7628 C.ar    1  UNL1        0.0693
     19 N          18.1507   -9.8458    5.8950 N.ar    1  UNL1       -0.1380
     20 N          14.0576   -9.1243    5.4567 N.ar    1  UNL1       -0.0657
     21 H           0.6270    0.7674   -0.5507 H       1  UNL1        0.0322
     22 H           0.6270   -0.0725    0.9815 H       1  UNL1        0.0322
     23 H           0.6270   -0.9795   -0.5119 H       1  UNL1        0.0322
     24 H           2.7464   -1.9117    1.0764 H       1  UNL1        0.1488
     25 H           5.0653   -0.2984    1.1187 H       1  UNL1        0.0484
     26 H           5.0653   -1.2054   -0.3747 H       1  UNL1        0.0484
     27 H           4.8586   -3.2925    0.8928 H       1  UNL1        0.0575
     28 H           4.8586   -2.3855    2.3863 H       1  UNL1        0.0575
     29 H           6.7520   -4.4368    1.5878 H       1  UNL1        0.0583
     30 H           6.7520   -3.5298    3.0812 H       1  UNL1        0.0583
     31 H           8.9853   -2.6675    2.5576 H       1  UNL1        0.0583
     32 H           8.9853   -3.5745    1.0641 H       1  UNL1        0.0583
     33 H          10.8786   -3.8118    3.2525 H       1  UNL1        0.0583
     34 H          10.8786   -4.7188    1.7591 H       1  UNL1        0.0583
     35 H          10.6720   -6.8059    3.0266 H       1  UNL1        0.0583
     36 H          10.6719   -5.8989    4.5201 H       1  UNL1        0.0583
     37 H          12.5653   -7.9502    3.7216 H       1  UNL1        0.0578
     38 H          12.5653   -7.0432    5.2150 H       1  UNL1        0.0578
     39 H          14.7986   -6.1810    4.6914 H       1  UNL1        0.0532
     40 H          14.7986   -7.0880    3.1979 H       1  UNL1        0.0532
     41 H          16.9719   -7.7973    4.6508 H       1  UNL1        0.0842
     42 H          16.1107  -10.2987    6.1700 H       1  UNL1        0.0864
@<TRIPOS>BOND
     1     1     2    1
     2     2     3    2
     3     2     4   am
     4     4     5    1
     5     5     6    1
     6     6     7    1
     7     7     8    1
     8     8     9    1
     9     9    10    1
    10    10    11    1
    11    11    12    1
    12    12    13    1
    13    13    14    1
    14    14    15    1
    15    15    16    1
    16    16    17   ar
    17    17    18   ar
    18    18    19   ar
    19    19    20   ar
    20    16    20   ar
    21     1    21    1
    22     1    22    1
    23     1    23    1
    24     4    24    1
    25     5    25    1
    26     5    26    1
    27     6    27    1
    28     6    28    1
    29     8    29    1
    30     8    30    1
    31     9    31    1
    32     9    32    1
    33    11    33    1
    34    11    34    1
    35    12    35    1
    36    12    36    1
    37    14    37    1
    38    14    38    1
    39    15    39    1
    40    15    40    1
    41    17    41    1
    42    18    42    1
