@<TRIPOS>MOLECULE
*****
 26 25 0 0 0
SMALL
GASTEIGER

@<TRIPOS>ATOM
      1 C           1.0776    0.0080    0.0626 C.3     1  UNL1       -0.0416
      2 C           2.5976    0.0080    0.0626 C.3     1  UNL1        0.0449
      3 O           3.0709    0.4131   -1.2135 O.3     1  UNL1       -0.3778
      4 C           4.4909    0.4131   -1.2135 C.3     1  UNL1        0.0710
      5 C           4.9976    0.8467   -2.5793 C.3     1  UNL1        0.0710
      6 O           6.4176    0.8467   -2.5793 O.3     1  UNL1       -0.3770
      7 C           6.8909    1.2519   -3.8554 C.3     1  UNL1        0.0560
      8 C           8.4109    1.2519   -3.8554 C.3     1  UNL1        0.0471
      9 C           8.9176    1.6855   -5.2213 C.2     1  UNL1        0.2127
     10 N           7.9623    2.0236   -6.2862 N.am    1  UNL1       -0.3293
     11 O          10.1671    1.7558   -5.4426 O.2     1  UNL1       -0.2760
     12 H           0.7209   -0.2973    1.0241 H       1  UNL1        0.0252
     13 H           0.7209   -0.6721   -0.6826 H       1  UNL1        0.0252
     14 H           0.7209    0.9933   -0.1538 H       1  UNL1        0.0252
     15 H           2.9543   -0.9774    0.2789 H       1  UNL1        0.0557
     16 H           2.9543    0.6880    0.8077 H       1  UNL1        0.0557
     17 H           4.8476   -0.5722   -0.9971 H       1  UNL1        0.0583
     18 H           4.8476    1.0931   -0.4683 H       1  UNL1        0.0583
     19 H           4.6409    1.8321   -2.7957 H       1  UNL1        0.0583
     20 H           4.6409    0.1667   -3.3245 H       1  UNL1        0.0583
     21 H           6.5343    2.2372   -4.0718 H       1  UNL1        0.0564
     22 H           6.5343    0.5718   -4.6005 H       1  UNL1        0.0564
     23 H           8.7676    0.2665   -3.6390 H       1  UNL1        0.0381
     24 H           8.7676    1.9319   -3.1102 H       1  UNL1        0.0381
     25 H           6.9944    1.9692   -6.1147 H       1  UNL1        0.1449
     26 H           8.2905    2.3045   -7.1709 H       1  UNL1        0.1449
@<TRIPOS>BOND
     1     1     2    1
     2     2     3    1
     3     3     4    1
     4     4     5    1
     5     5     6    1
     6     6     7    1
     7     7     8    1
     8     8     9    1
     9     9    10   am
    10     9    11    2
    11     1    12    1
    12     1    13    1
    13     1    14    1
    14     2    15    1
    15     2    16    1
    16     4    17    1
    17     4    18    1
    18     5    19    1
    19     5    20    1
    20     7    21    1
    21     7    22    1
    22     8    23    1
    23     8    24    1
    24    10    25    1
    25    10    26    1
