@<TRIPOS>MOLECULE
*****
 21 20 0 0 0
SMALL
GASTEIGER

@<TRIPOS>ATOM
      1 C           1.0022    0.0175    0.0984 C.3     1  UNL1       -0.0648
      2 C           2.5222    0.0175    0.0984 C.3     1  UNL1       -0.0476
      3 C           3.0288   -0.5334    1.4213 C.3     1  UNL1        0.0237
      4 C           4.5488   -0.5334    1.4213 C.2     1  UNL1        0.2130
      5 O           5.1843   -0.1103    0.4053 O.2     1  UNL1       -0.2758
      6 N           5.2838   -1.0229    2.5965 N.am    1  UNL1       -0.3156
      7 C           6.7538   -1.0229    2.5965 C.3     1  UNL1        0.0088
      8 C           7.2605   -1.5739    3.9195 C.3     1  UNL1       -0.0495
      9 H           0.6455    0.4054   -0.8328 H       1  UNL1        0.0230
     10 H           0.6455    0.6301    0.9000 H       1  UNL1        0.0230
     11 H           0.6455   -0.9829    0.2282 H       1  UNL1        0.0230
     12 H           2.8788    1.0180   -0.0313 H       1  UNL1        0.0267
     13 H           2.8788   -0.5950   -0.7031 H       1  UNL1        0.0267
     14 H           2.6721   -1.5339    1.5511 H       1  UNL1        0.0358
     15 H           2.6721    0.0791    2.2229 H       1  UNL1        0.0358
     16 H           4.7916   -1.3507    3.3836 H       1  UNL1        0.1487
     17 H           7.1105   -0.0225    2.4668 H       1  UNL1        0.0459
     18 H           7.1105   -1.6355    1.7950 H       1  UNL1        0.0459
     19 H           6.9038   -0.9613    4.7210 H       1  UNL1        0.0245
     20 H           8.3305   -1.5739    3.9195 H       1  UNL1        0.0245
     21 H           6.9038   -2.5743    4.0492 H       1  UNL1        0.0245
@<TRIPOS>BOND
     1     1     2    1
     2     2     3    1
     3     3     4    1
     4     4     5    2
     5     4     6   am
     6     6     7    1
     7     7     8    1
     8     1     9    1
     9     1    10    1
    10     1    11    1
    11     2    12    1
    12     2    13    1
    13     3    14    1
    14     3    15    1
    15     6    16    1
    16     7    17    1
    17     7    18    1
    18     8    19    1
    19     8    20    1
    20     8    21    1
