@<TRIPOS>MOLECULE
*****
 31 30 0 0 0
SMALL
GASTEIGER

@<TRIPOS>ATOM
      1 C           0.9517   -0.0504    0.0716 C.3     1  UNL1        0.0121
      2 C           2.4717   -0.0504    0.0716 C.2     1  UNL1        0.2100
      3 O           3.1072   -0.6719    0.9800 O.2     1  UNL1       -0.2761
      4 N           3.2067    0.6685   -0.9790 N.am    1  UNL1       -0.3133
      5 C           4.6767    0.6685   -0.9790 C.3     1  UNL1        0.0350
      6 C           5.1834    1.4777   -2.1618 C.3     1  UNL1        0.0632
      7 O           6.6034    1.4777   -2.1618 O.3     1  UNL1       -0.3760
      8 C           7.0767    2.2337   -3.2667 C.3     1  UNL1        0.0711
      9 C           8.5967    2.2337   -3.2667 C.3     1  UNL1        0.0711
     10 O           9.0701    2.9896   -4.3716 O.3     1  UNL1       -0.3763
     11 C          10.4901    2.9896   -4.3716 C.3     1  UNL1        0.0600
     12 C          10.9967    3.7989   -5.5543 C.3     1  UNL1        0.0166
     13 N          12.4667    3.7989   -5.5543 N.3     1  UNL1       -0.3279
     14 H           0.5951   -0.6201    0.9042 H       1  UNL1        0.0322
     15 H           0.5951   -0.4866   -0.8380 H       1  UNL1        0.0322
     16 H           0.5951    0.9554    0.1487 H       1  UNL1        0.0322
     17 H           2.7145    1.1499   -1.6827 H       1  UNL1        0.1488
     18 H           5.0334   -0.3374   -1.0561 H       1  UNL1        0.0484
     19 H           5.0334    1.1047   -0.0694 H       1  UNL1        0.0484
     20 H           4.8267    2.4835   -2.0847 H       1  UNL1        0.0575
     21 H           4.8267    1.0415   -3.0714 H       1  UNL1        0.0575
     22 H           6.7201    3.2395   -3.1897 H       1  UNL1        0.0583
     23 H           6.7201    1.7975   -4.1763 H       1  UNL1        0.0583
     24 H           8.9534    1.2278   -3.3437 H       1  UNL1        0.0583
     25 H           8.9534    2.6699   -2.3571 H       1  UNL1        0.0583
     26 H          10.8467    1.9838   -4.4487 H       1  UNL1        0.0572
     27 H          10.8467    3.4259   -3.4620 H       1  UNL1        0.0572
     28 H          10.6401    4.8047   -5.4773 H       1  UNL1        0.0444
     29 H          10.6401    3.3627   -6.4640 H       1  UNL1        0.0444
     30 H          12.8067    4.2147   -4.6872 H       1  UNL1        0.1183
     31 H          12.8067    4.3419   -6.3480 H       1  UNL1        0.1183
@<TRIPOS>BOND
     1     1     2    1
     2     2     3    2
     3     2     4   am
     4     4     5    1
     5     5     6    1
     6     6     7    1
     7     7     8    1
     8     8     9    1
     9     9    10    1
    10    10    11    1
    11    11    12    1
    12    12    13    1
    13     1    14    1
    14     1    15    1
    15     1    16    1
    16     4    17    1
    17     5    18    1
    18     5    19    1
    19     6    20    1
    20     6    21    1
    21     8    22    1
    22     8    23    1
    23     9    24    1
    24     9    25    1
    25    11    26    1
    26    11    27    1
    27    12    28    1
    28    12    29    1
    29    13    30    1
    30    13    31    1
