@<TRIPOS>MOLECULE
*****
 57 57 0 0 0
SMALL
GASTEIGER

@<TRIPOS>ATOM
      1 N           1.0551    0.0779    0.0299 N.3     1  UNL1       -0.3279
      2 C           2.5251    0.0779    0.0299 C.3     1  UNL1        0.0166
      3 C           3.0318   -1.0280   -0.8815 C.3     1  UNL1        0.0600
      4 O           4.4518   -1.0280   -0.8815 O.3     1  UNL1       -0.3763
      5 C           4.9251   -2.0612   -1.7329 C.3     1  UNL1        0.0711
      6 C           6.4451   -2.0612   -1.7329 C.3     1  UNL1        0.0711
      7 O           6.9184   -3.0944   -2.5842 O.3     1  UNL1       -0.3752
      8 C           8.3384   -3.0944   -2.5842 C.3     1  UNL1        0.0711
      9 C           8.8451   -4.2004   -3.4956 C.3     1  UNL1        0.0711
     10 O          10.2651   -4.2004   -3.4956 O.3     1  UNL1       -0.3752
     11 C          10.7384   -5.2336   -4.3470 C.3     1  UNL1        0.0711
     12 C          12.2584   -5.2336   -4.3470 C.3     1  UNL1        0.0711
     13 O          12.7317   -6.2668   -5.1984 O.3     1  UNL1       -0.3757
     14 C          14.1517   -6.2668   -5.1984 C.3     1  UNL1        0.0673
     15 C          14.6584   -7.3728   -6.1097 C.3     1  UNL1        0.0665
     16 N          16.1284   -7.3728   -6.1097 N.ar    1  UNL1       -0.2492
     17 C          16.8248   -8.3036   -6.8768 C.ar    1  UNL1        0.0487
     18 C          18.2650   -8.3036   -6.8768 C.ar    1  UNL1        0.0828
     19 C          19.0250   -7.2878   -6.0397 C.3     1  UNL1       -0.0071
     20 C          18.0373   -6.3961   -5.3050 C.3     1  UNL1       -0.0455
     21 C          18.7973   -5.3803   -4.4678 C.3     1  UNL1       -0.0294
     22 C          17.8095   -4.4887   -3.7331 C.3     1  UNL1        0.0442
     23 O          18.5195   -3.5396   -2.9511 O.3     1  UNL1       -0.3950
     24 N          18.9614   -9.2345   -7.6439 N.ar    1  UNL1       -0.1345
     25 N          16.8011   -6.4735   -5.3687 N.ar    1  UNL1       -0.0654
     26 H           0.7151    0.8201    0.6414 H       1  UNL1        0.1183
     27 H           0.7151   -0.8228    0.3668 H       1  UNL1        0.1183
     28 H           2.8818   -0.0884    1.0249 H       1  UNL1        0.0444
     29 H           2.8818    1.0228   -0.3236 H       1  UNL1        0.0444
     30 H           2.6751   -0.8617   -1.8765 H       1  UNL1        0.0572
     31 H           2.6751   -1.9729   -0.5280 H       1  UNL1        0.0572
     32 H           4.5684   -1.8949   -2.7279 H       1  UNL1        0.0583
     33 H           4.5684   -3.0061   -1.3794 H       1  UNL1        0.0583
     34 H           6.8018   -2.2276   -0.7379 H       1  UNL1        0.0583
     35 H           6.8018   -1.1164   -2.0863 H       1  UNL1        0.0583
     36 H           8.6951   -3.2608   -1.5892 H       1  UNL1        0.0583
     37 H           8.6951   -2.1496   -2.9377 H       1  UNL1        0.0583
     38 H           8.4884   -4.0341   -4.4906 H       1  UNL1        0.0583
     39 H           8.4884   -5.1453   -3.1421 H       1  UNL1        0.0583
     40 H          10.3817   -5.0673   -5.3420 H       1  UNL1        0.0583
     41 H          10.3817   -6.1785   -3.9935 H       1  UNL1        0.0583
     42 H          12.6151   -5.3999   -3.3520 H       1  UNL1        0.0583
     43 H          12.6151   -4.2887   -4.7004 H       1  UNL1        0.0583
     44 H          14.5084   -6.4331   -4.2034 H       1  UNL1        0.0578
     45 H          14.5084   -5.3219   -5.5518 H       1  UNL1        0.0578
     46 H          14.3017   -7.2064   -7.1047 H       1  UNL1        0.0532
     47 H          14.3017   -8.3176   -5.7562 H       1  UNL1        0.0532
     48 H          16.3088   -8.9934   -7.4452 H       1  UNL1        0.0845
     49 H          19.6402   -6.6884   -6.6779 H       1  UNL1        0.0329
     50 H          19.6402   -7.7996   -5.3294 H       1  UNL1        0.0329
     51 H          17.4221   -6.9955   -4.6668 H       1  UNL1        0.0270
     52 H          17.4221   -5.8843   -6.0152 H       1  UNL1        0.0270
     53 H          19.4124   -4.7809   -5.1060 H       1  UNL1        0.0287
     54 H          19.4124   -5.8921   -3.7576 H       1  UNL1        0.0287
     55 H          17.1944   -5.0880   -3.0949 H       1  UNL1        0.0557
     56 H          17.1944   -3.9768   -4.4434 H       1  UNL1        0.0557
     57 H          19.0772   -4.0036   -2.3072 H       1  UNL1        0.2094
@<TRIPOS>BOND
     1     1     2    1
     2     2     3    1
     3     3     4    1
     4     4     5    1
     5     5     6    1
     6     6     7    1
     7     7     8    1
     8     8     9    1
     9     9    10    1
    10    10    11    1
    11    11    12    1
    12    12    13    1
    13    13    14    1
    14    14    15    1
    15    15    16    1
    16    16    17   ar
    17    17    18   ar
    18    18    19    1
    19    19    20    1
    20    20    21    1
    21    21    22    1
    22    22    23    1
    23    18    24   ar
    24    24    25   ar
    25    16    25   ar
    26     1    26    1
    27     1    27    1
    28     2    28    1
    29     2    29    1
    30     3    30    1
    31     3    31    1
    32     5    32    1
    33     5    33    1
    34     6    34    1
    35     6    35    1
    36     8    36    1
    37     8    37    1
    38     9    38    1
    39     9    39    1
    40    11    40    1
    41    11    41    1
    42    12    42    1
    43    12    43    1
    44    14    44    1
    45    14    45    1
    46    15    46    1
    47    15    47    1
    48    17    48    1
    49    19    49    1
    50    19    50    1
    51    20    51    1
    52    20    52    1
    53    21    53    1
    54    21    54    1
    55    22    55    1
    56    22    56    1
    57    23    57    1
