@<TRIPOS>MOLECULE
*****
 48 48 0 0 0
SMALL
GASTEIGER

@<TRIPOS>ATOM
      1 O           0.9180    0.0508   -0.0264 O.2     1  UNL1       -0.2729
      2 C           2.1889    0.0508   -0.0264 C.2     1  UNL1        0.2430
      3 C           2.9489   -1.1470    0.5195 C.3     1  UNL1        0.1240
      4 O           2.0262   -2.1292    0.9670 O.3     1  UNL1       -0.3706
      5 C           2.7362   -3.2482    1.4770 C.3     1  UNL1        0.0483
      6 C           1.7484   -4.2995    1.9561 C.3     1  UNL1       -0.0294
      7 C           2.5084   -5.4974    2.5020 C.3     1  UNL1       -0.0510
      8 C           1.5207   -6.5487    2.9810 C.3     1  UNL1       -0.0530
      9 C           2.2807   -7.7465    3.5269 C.3     1  UNL1       -0.0531
     10 C           1.2929   -8.7978    4.0060 C.3     1  UNL1       -0.0530
     11 C           2.0529   -9.9956    4.5519 C.3     1  UNL1       -0.0510
     12 C           1.0652  -11.0469    5.0309 C.3     1  UNL1       -0.0297
     13 C           1.8252  -12.2448    5.5768 C.3     1  UNL1        0.0442
     14 O           0.9024  -13.2269    6.0244 O.3     1  UNL1       -0.3950
     15 N           2.9239    1.2093   -0.5543 N.am    1  UNL1       -0.2836
     16 C           4.3939    1.2093   -0.5543 C.ar    1  UNL1        0.0335
     17 C           5.1140    2.3442   -1.0715 C.ar    1  UNL1       -0.0405
     18 C           6.5542    2.3442   -1.0715 C.ar    1  UNL1       -0.0600
     19 C           7.2743    3.4792   -1.5887 C.ar    1  UNL1       -0.0616
     20 C           8.7145    3.4792   -1.5887 C.ar    1  UNL1       -0.0600
     21 C           5.1140    0.0743   -0.0371 C.ar    1  UNL1       -0.0405
     22 H           3.5641   -0.8363    1.3380 H       1  UNL1        0.0657
     23 H           3.5641   -1.5609   -0.2520 H       1  UNL1        0.0657
     24 H           3.3513   -2.9375    2.2955 H       1  UNL1        0.0560
     25 H           3.3513   -3.6621    0.7055 H       1  UNL1        0.0560
     26 H           1.1332   -4.6102    1.1376 H       1  UNL1        0.0287
     27 H           1.1332   -3.8856    2.7276 H       1  UNL1        0.0287
     28 H           3.1236   -5.1866    3.3205 H       1  UNL1        0.0266
     29 H           3.1236   -5.9112    1.7305 H       1  UNL1        0.0266
     30 H           0.9055   -6.8594    2.1625 H       1  UNL1        0.0265
     31 H           0.9055   -6.1348    3.7525 H       1  UNL1        0.0265
     32 H           2.8958   -7.4358    4.3454 H       1  UNL1        0.0265
     33 H           2.8958   -8.1604    2.7554 H       1  UNL1        0.0265
     34 H           0.6778   -9.1085    3.1875 H       1  UNL1        0.0265
     35 H           0.6778   -8.3839    4.7775 H       1  UNL1        0.0265
     36 H           2.6681   -9.6849    5.3704 H       1  UNL1        0.0266
     37 H           2.6681  -10.4095    3.7804 H       1  UNL1        0.0266
     38 H           0.4500  -11.3577    4.2124 H       1  UNL1        0.0287
     39 H           0.4500  -10.6331    5.8024 H       1  UNL1        0.0287
     40 H           2.4403  -11.9341    6.3953 H       1  UNL1        0.0557
     41 H           2.4403  -12.6587    4.8053 H       1  UNL1        0.0557
     42 H           0.3447  -12.8517    6.7238 H       1  UNL1        0.2094
     43 H           2.4317    1.9851   -0.9079 H       1  UNL1        0.1549
     44 H           4.5980    3.1575   -1.4421 H       1  UNL1        0.0636
     45 H           7.0702    1.5309   -0.7009 H       1  UNL1        0.0618
     46 H           6.7583    4.2924   -1.9593 H       1  UNL1        0.0618
     47 H           9.6641    3.8469   -1.7563 H       1  UNL1        0.0618
     48 H           4.9892   -0.8579    0.3877 H       1  UNL1        0.0636
@<TRIPOS>BOND
     1     1     2    2
     2     2     3    1
     3     3     4    1
     4     4     5    1
     5     5     6    1
     6     6     7    1
     7     7     8    1
     8     8     9    1
     9     9    10    1
    10    10    11    1
    11    11    12    1
    12    12    13    1
    13    13    14    1
    14     2    15   am
    15    15    16    1
    16    16    17   ar
    17    17    18   ar
    18    18    19   ar
    19    19    20   ar
    20    20    21   ar
    21    16    21   ar
    22     3    22    1
    23     3    23    1
    24     5    24    1
    25     5    25    1
    26     6    26    1
    27     6    27    1
    28     7    28    1
    29     7    29    1
    30     8    30    1
    31     8    31    1
    32     9    32    1
    33     9    33    1
    34    10    34    1
    35    10    35    1
    36    11    36    1
    37    11    37    1
    38    12    38    1
    39    12    39    1
    40    13    40    1
    41    13    41    1
    42    14    42    1
    43    15    43    1
    44    17    44    1
    45    18    45    1
    46    19    46    1
    47    20    47    1
    48    21    48    1
