@<TRIPOS>MOLECULE
*****
 50 50 0 0 0
SMALL
GASTEIGER

@<TRIPOS>ATOM
      1 N           0.9133   -0.0396   -0.0304 N.3     1  UNL1       -0.3279
      2 C           2.3833   -0.0396   -0.0304 C.3     1  UNL1        0.0166
      3 C           2.8900   -1.0131    1.0213 C.3     1  UNL1        0.0600
      4 O           4.3100   -1.0131    1.0213 O.3     1  UNL1       -0.3763
      5 C           4.7833   -1.9225    2.0038 C.3     1  UNL1        0.0711
      6 C           6.3033   -1.9225    2.0038 C.3     1  UNL1        0.0711
      7 O           6.7766   -2.8320    2.9863 O.3     1  UNL1       -0.3752
      8 C           8.1966   -2.8320    2.9863 C.3     1  UNL1        0.0711
      9 C           8.7033   -3.8055    4.0379 C.3     1  UNL1        0.0711
     10 O          10.1233   -3.8055    4.0379 O.3     1  UNL1       -0.3757
     11 C          10.5966   -4.7149    5.0204 C.3     1  UNL1        0.0673
     12 C          12.1166   -4.7149    5.0204 C.3     1  UNL1        0.0665
     13 N          12.6066   -5.6564    6.0375 N.ar    1  UNL1       -0.2492
     14 C          13.9760   -5.8293    6.2242 C.ar    1  UNL1        0.0487
     15 C          14.4561   -6.7517    7.2207 C.ar    1  UNL1        0.0828
     16 C          13.4683   -7.5365    8.0685 C.3     1  UNL1       -0.0071
     17 C          12.0498   -7.1655    7.6677 C.3     1  UNL1       -0.0455
     18 C          11.0621   -7.9503    8.5156 C.3     1  UNL1       -0.0294
     19 C           9.6436   -7.5793    8.1148 C.3     1  UNL1        0.0442
     20 O           8.7208   -8.3125    8.9068 O.3     1  UNL1       -0.3950
     21 N          15.8254   -6.9246    7.4075 N.ar    1  UNL1       -0.1345
     22 N          11.7323   -6.3511    6.7879 N.ar    1  UNL1       -0.0654
     23 H           0.5733    0.6137   -0.7361 H       1  UNL1        0.1183
     24 H           0.5733    0.2450    0.8883 H       1  UNL1        0.1183
     25 H           2.7400    0.9442    0.1930 H       1  UNL1        0.0444
     26 H           2.7400   -0.3380   -0.9940 H       1  UNL1        0.0444
     27 H           2.5333   -1.9968    0.7980 H       1  UNL1        0.0572
     28 H           2.5333   -0.7146    1.9849 H       1  UNL1        0.0572
     29 H           4.4266   -2.9063    1.7805 H       1  UNL1        0.0583
     30 H           4.4266   -1.6240    2.9674 H       1  UNL1        0.0583
     31 H           6.6600   -0.9387    2.2271 H       1  UNL1        0.0583
     32 H           6.6600   -2.2210    1.0401 H       1  UNL1        0.0583
     33 H           8.5533   -1.8482    3.2096 H       1  UNL1        0.0583
     34 H           8.5533   -3.1304    2.0226 H       1  UNL1        0.0583
     35 H           8.3466   -4.7892    3.8146 H       1  UNL1        0.0583
     36 H           8.3466   -3.5070    5.0016 H       1  UNL1        0.0583
     37 H          10.2400   -5.6987    4.7971 H       1  UNL1        0.0578
     38 H          10.2400   -4.4164    5.9840 H       1  UNL1        0.0578
     39 H          12.4733   -3.7311    5.2437 H       1  UNL1        0.0532
     40 H          12.4733   -5.0134    4.0568 H       1  UNL1        0.0532
     41 H          14.6466   -5.2964    5.6486 H       1  UNL1        0.0845
     42 H          13.6199   -7.3022    9.1015 H       1  UNL1        0.0329
     43 H          13.6199   -8.5844    7.9145 H       1  UNL1        0.0329
     44 H          11.8982   -7.3998    6.6348 H       1  UNL1        0.0270
     45 H          11.8982   -6.1175    7.8217 H       1  UNL1        0.0270
     46 H          11.2137   -7.7160    9.5485 H       1  UNL1        0.0287
     47 H          11.2137   -8.9982    8.3616 H       1  UNL1        0.0287
     48 H           9.4920   -7.8136    7.0818 H       1  UNL1        0.0557
     49 H           9.4920   -6.5313    8.2688 H       1  UNL1        0.0557
     50 H           8.8583   -9.2625    8.7672 H       1  UNL1        0.2094
@<TRIPOS>BOND
     1     1     2    1
     2     2     3    1
     3     3     4    1
     4     4     5    1
     5     5     6    1
     6     6     7    1
     7     7     8    1
     8     8     9    1
     9     9    10    1
    10    10    11    1
    11    11    12    1
    12    12    13    1
    13    13    14   ar
    14    14    15   ar
    15    15    16    1
    16    16    17    1
    17    17    18    1
    18    18    19    1
    19    19    20    1
    20    15    21   ar
    21    21    22   ar
    22    13    22   ar
    23     1    23    1
    24     1    24    1
    25     2    25    1
    26     2    26    1
    27     3    27    1
    28     3    28    1
    29     5    29    1
    30     5    30    1
    31     6    31    1
    32     6    32    1
    33     8    33    1
    34     8    34    1
    35     9    35    1
    36     9    36    1
    37    11    37    1
    38    11    38    1
    39    12    39    1
    40    12    40    1
    41    14    41    1
    42    16    42    1
    43    16    43    1
    44    17    44    1
    45    17    45    1
    46    18    46    1
    47    18    47    1
    48    19    48    1
    49    19    49    1
    50    20    50    1
