@<TRIPOS>MOLECULE
*****
 41 41 0 0 0
SMALL
GASTEIGER

@<TRIPOS>ATOM
      1 O           1.0275   -0.0515    0.0812 O.2     1  UNL1       -0.2755
      2 C           2.2984   -0.0515    0.0812 C.2     1  UNL1        0.2172
      3 C           3.0584    1.1300   -0.4992 C.3     1  UNL1        0.0243
      4 C           2.0707    2.1670   -1.0085 C.3     1  UNL1       -0.0448
      5 C           2.8307    3.3485   -1.5888 C.3     1  UNL1       -0.0526
      6 C           1.8429    4.3855   -2.0981 C.3     1  UNL1       -0.0530
      7 C           2.6029    5.5671   -2.6784 C.3     1  UNL1       -0.0530
      8 C           1.6152    6.6041   -3.1877 C.3     1  UNL1       -0.0510
      9 C           2.3752    7.7856   -3.7681 C.3     1  UNL1       -0.0297
     10 C           1.3874    8.8226   -4.2774 C.3     1  UNL1        0.0442
     11 O           2.0974    9.9264   -4.8195 O.3     1  UNL1       -0.3950
     12 N           3.0334   -1.1942    0.6424 N.am    1  UNL1       -0.2855
     13 C           4.5034   -1.1942    0.6424 C.ar    1  UNL1        0.0334
     14 C           5.2235   -2.3137    1.1922 C.ar    1  UNL1       -0.0405
     15 C           6.6637   -2.3137    1.1922 C.ar    1  UNL1       -0.0600
     16 C           7.3838   -3.4332    1.7421 C.ar    1  UNL1       -0.0616
     17 C           8.8240   -3.4332    1.7421 C.ar    1  UNL1       -0.0600
     18 C           5.2235   -0.0747    0.0925 C.ar    1  UNL1       -0.0405
     19 H           3.6736    0.7957   -1.3083 H       1  UNL1        0.0358
     20 H           3.6736    1.5660    0.2600 H       1  UNL1        0.0358
     21 H           1.4555    2.5013   -0.1993 H       1  UNL1        0.0270
     22 H           1.4555    1.7310   -1.7677 H       1  UNL1        0.0270
     23 H           3.4458    3.0143   -2.3979 H       1  UNL1        0.0265
     24 H           3.4458    3.7846   -0.8296 H       1  UNL1        0.0265
     25 H           1.2278    4.7198   -1.2889 H       1  UNL1        0.0265
     26 H           1.2278    3.9495   -2.8573 H       1  UNL1        0.0265
     27 H           3.2181    5.2328   -3.4876 H       1  UNL1        0.0265
     28 H           3.2181    6.0031   -1.9192 H       1  UNL1        0.0265
     29 H           1.0000    6.9383   -2.3786 H       1  UNL1        0.0266
     30 H           1.0000    6.1680   -3.9469 H       1  UNL1        0.0266
     31 H           2.9903    7.4513   -4.5772 H       1  UNL1        0.0287
     32 H           2.9903    8.2216   -3.0089 H       1  UNL1        0.0287
     33 H           0.7723    9.1569   -3.4682 H       1  UNL1        0.0557
     34 H           0.7723    8.3866   -5.0366 H       1  UNL1        0.0557
     35 H           2.6551   10.3217   -4.1313 H       1  UNL1        0.2094
     36 H           2.5412   -1.9595    1.0183 H       1  UNL1        0.1548
     37 H           4.7075   -3.1159    1.5862 H       1  UNL1        0.0636
     38 H           7.1797   -1.5115    0.7982 H       1  UNL1        0.0618
     39 H           6.8678   -4.2354    2.1361 H       1  UNL1        0.0618
     40 H           9.7736   -3.7959    1.9202 H       1  UNL1        0.0618
     41 H           5.0987    0.8448   -0.3591 H       1  UNL1        0.0636
@<TRIPOS>BOND
     1     1     2    2
     2     2     3    1
     3     3     4    1
     4     4     5    1
     5     5     6    1
     6     6     7    1
     7     7     8    1
     8     8     9    1
     9     9    10    1
    10    10    11    1
    11     2    12   am
    12    12    13    1
    13    13    14   ar
    14    14    15   ar
    15    15    16   ar
    16    16    17   ar
    17    17    18   ar
    18    13    18   ar
    19     3    19    1
    20     3    20    1
    21     4    21    1
    22     4    22    1
    23     5    23    1
    24     5    24    1
    25     6    25    1
    26     6    26    1
    27     7    27    1
    28     7    28    1
    29     8    29    1
    30     8    30    1
    31     9    31    1
    32     9    32    1
    33    10    33    1
    34    10    34    1
    35    11    35    1
    36    12    36    1
    37    14    37    1
    38    15    38    1
    39    16    39    1
    40    17    40    1
    41    18    41    1
