@<TRIPOS>MOLECULE
*****
 25 24 0 0 0
SMALL
GASTEIGER

@<TRIPOS>ATOM
      1 C           0.9173    0.0092   -0.0554 C.3     1  UNL1       -0.0632
      2 C           2.4373    0.0092   -0.0554 C.3     1  UNL1       -0.0323
      3 C           2.9439    0.0629    1.3766 C.3     1  UNL1        0.0474
      4 O           4.3639    0.0629    1.3766 O.3     1  UNL1       -0.3798
      5 C           4.8373    0.1132    2.7145 C.3     1  UNL1        0.0477
      6 C           6.3573    0.1132    2.7145 C.3     1  UNL1       -0.0274
      7 C           6.8639    0.1670    4.1465 C.3     1  UNL1       -0.0276
      8 C           8.3839    0.1670    4.1465 C.3     1  UNL1        0.0443
      9 O           8.8573    0.2172    5.4844 O.3     1  UNL1       -0.3950
     10 H           0.5606   -0.0287   -1.0635 H       1  UNL1        0.0230
     11 H           0.5606    0.9011    0.4158 H       1  UNL1        0.0230
     12 H           0.5606   -0.8449    0.4814 H       1  UNL1        0.0230
     13 H           2.7939    0.8633   -0.5923 H       1  UNL1        0.0285
     14 H           2.7939   -0.8828   -0.5267 H       1  UNL1        0.0285
     15 H           2.5873   -0.7912    1.9135 H       1  UNL1        0.0560
     16 H           2.5873    0.9549    1.8479 H       1  UNL1        0.0560
     17 H           4.4806   -0.7409    3.2513 H       1  UNL1        0.0560
     18 H           4.4806    1.0051    3.1857 H       1  UNL1        0.0560
     19 H           6.7139    0.9673    2.1776 H       1  UNL1        0.0288
     20 H           6.7139   -0.7788    2.2432 H       1  UNL1        0.0288
     21 H           6.5073   -0.6871    4.6834 H       1  UNL1        0.0288
     22 H           6.5073    1.0589    4.6178 H       1  UNL1        0.0288
     23 H           8.7406    1.0211    3.6097 H       1  UNL1        0.0557
     24 H           8.7406   -0.7250    3.6753 H       1  UNL1        0.0557
     25 H           8.5339    1.0258    5.9116 H       1  UNL1        0.2094
@<TRIPOS>BOND
     1     1     2    1
     2     2     3    1
     3     3     4    1
     4     4     5    1
     5     5     6    1
     6     6     7    1
     7     7     8    1
     8     8     9    1
     9     1    10    1
    10     1    11    1
    11     1    12    1
    12     2    13    1
    13     2    14    1
    14     3    15    1
    15     3    16    1
    16     5    17    1
    17     5    18    1
    18     6    19    1
    19     6    20    1
    20     7    21    1
    21     7    22    1
    22     8    23    1
    23     8    24    1
    24     9    25    1
