@<TRIPOS>MOLECULE
*****
 33 32 0 0 0
SMALL
GASTEIGER

@<TRIPOS>ATOM
      1 C           1.0781   -0.0623    0.0044 C.3     1  UNL1       -0.0416
      2 C           2.5981   -0.0623    0.0044 C.3     1  UNL1        0.0449
      3 O           3.0714    0.2025    1.3167 O.3     1  UNL1       -0.3778
      4 C           4.4914    0.2025    1.3167 C.3     1  UNL1        0.0710
      5 C           4.9981    0.4860    2.7215 C.3     1  UNL1        0.0710
      6 O           6.4181    0.4860    2.7215 O.3     1  UNL1       -0.3770
      7 C           6.8914    0.7508    4.0338 C.3     1  UNL1        0.0560
      8 C           8.4114    0.7508    4.0338 C.3     1  UNL1        0.0473
      9 C           8.9181    1.0343    5.4386 C.2     1  UNL1        0.2153
     10 O           8.0922    1.2254    6.3855 O.2     1  UNL1       -0.2757
     11 N          10.3633    1.0874    5.7019 N.am    1  UNL1       -0.3131
     12 C          10.8533    1.3616    7.0604 C.3     1  UNL1        0.0348
     13 C          12.3733    1.3616    7.0604 C.3     1  UNL1        0.0597
     14 O          12.8467    1.6264    8.3728 O.3     1  UNL1       -0.3935
     15 H           0.7214   -0.2618   -0.9845 H       1  UNL1        0.0252
     16 H           0.7214    0.8939    0.3260 H       1  UNL1        0.0252
     17 H           0.7214   -0.8189    0.6717 H       1  UNL1        0.0252
     18 H           2.9548    0.6943   -0.6629 H       1  UNL1        0.0557
     19 H           2.9548   -1.0185   -0.3172 H       1  UNL1        0.0557
     20 H           4.8481    0.9591    0.6495 H       1  UNL1        0.0583
     21 H           4.8481   -0.7536    0.9951 H       1  UNL1        0.0583
     22 H           4.6414   -0.2706    3.3887 H       1  UNL1        0.0583
     23 H           4.6414    1.4422    3.0431 H       1  UNL1        0.0583
     24 H           6.5348   -0.0058    4.7011 H       1  UNL1        0.0564
     25 H           6.5348    1.7070    4.3554 H       1  UNL1        0.0564
     26 H           8.7681    1.5074    3.3666 H       1  UNL1        0.0381
     27 H           8.7681   -0.2053    3.7122 H       1  UNL1        0.0381
     28 H          11.0031    0.9394    4.9684 H       1  UNL1        0.1488
     29 H          10.4967    0.6050    7.7277 H       1  UNL1        0.0484
     30 H          10.4967    2.3178    7.3821 H       1  UNL1        0.0484
     31 H          12.7300    2.1182    6.3932 H       1  UNL1        0.0573
     32 H          12.7300    0.4054    6.7388 H       1  UNL1        0.0573
     33 H          12.5233    2.4932    8.6643 H       1  UNL1        0.2095
@<TRIPOS>BOND
     1     1     2    1
     2     2     3    1
     3     3     4    1
     4     4     5    1
     5     5     6    1
     6     6     7    1
     7     7     8    1
     8     8     9    1
     9     9    10    2
    10     9    11   am
    11    11    12    1
    12    12    13    1
    13    13    14    1
    14     1    15    1
    15     1    16    1
    16     1    17    1
    17     2    18    1
    18     2    19    1
    19     4    20    1
    20     4    21    1
    21     5    22    1
    22     5    23    1
    23     7    24    1
    24     7    25    1
    25     8    26    1
    26     8    27    1
    27    11    28    1
    28    12    29    1
    29    12    30    1
    30    13    31    1
    31    13    32    1
    32    14    33    1
