@<TRIPOS>MOLECULE
*****
 16 15 0 0 0
SMALL
GASTEIGER

@<TRIPOS>ATOM
      1 C           0.9693    0.0641   -0.0703 C.3     1  UNL1        0.0364
      2 O           2.3893    0.0641   -0.0703 O.3     1  UNL1       -0.3829
      3 C           2.8627    1.0360   -0.9911 C.3     1  UNL1        0.0494
      4 C           4.3827    1.0360   -0.9911 C.3     1  UNL1       -0.0062
      5 C           4.8893    2.0762   -1.9768 C.3     1  UNL1        0.0463
      6 O           6.3093    2.0762   -1.9768 O.3     1  UNL1       -0.3949
      7 H           0.6127   -0.6682    0.6235 H       1  UNL1        0.0523
      8 H           0.6127   -0.1706   -1.0514 H       1  UNL1        0.0523
      9 H           0.6127    1.0312    0.2169 H       1  UNL1        0.0523
     10 H           2.5060    2.0030   -0.7039 H       1  UNL1        0.0560
     11 H           2.5060    0.8012   -1.9723 H       1  UNL1        0.0560
     12 H           4.7393    0.0689   -1.2784 H       1  UNL1        0.0309
     13 H           4.7393    1.2707   -0.0100 H       1  UNL1        0.0309
     14 H           4.5327    3.0433   -1.6896 H       1  UNL1        0.0558
     15 H           4.5327    1.8415   -2.9579 H       1  UNL1        0.0558
     16 H           6.6327    2.2890   -1.0874 H       1  UNL1        0.2094
@<TRIPOS>BOND
     1     1     2    1
     2     2     3    1
     3     3     4    1
     4     4     5    1
     5     5     6    1
     6     1     7    1
     7     1     8    1
     8     1     9    1
     9     3    10    1
    10     3    11    1
    11     4    12    1
    12     4    13    1
    13     5    14    1
    14     5    15    1
    15     6    16    1
