@<TRIPOS>MOLECULE
*****
 28 27 0 0 0
SMALL
GASTEIGER

@<TRIPOS>ATOM
      1 C           1.0121    0.0616    0.0779 C.3     1  UNL1       -0.0653
      2 C           2.5321    0.0616    0.0779 C.3     1  UNL1       -0.0558
      3 C           3.0388    1.4123   -0.4008 C.3     1  UNL1       -0.0512
      4 C           4.5588    1.4123   -0.4008 C.3     1  UNL1       -0.0295
      5 C           5.0654    2.7631   -0.8795 C.3     1  UNL1        0.0477
      6 O           6.4854    2.7631   -0.8795 O.3     1  UNL1       -0.3797
      7 C           6.9588    4.0250   -1.3268 C.3     1  UNL1        0.0497
      8 C           8.4788    4.0250   -1.3268 C.3     1  UNL1       -0.0062
      9 C           8.9854    5.3757   -1.8055 C.3     1  UNL1        0.0463
     10 O          10.4054    5.3757   -1.8055 O.3     1  UNL1       -0.3949
     11 H           0.6555   -0.8893    0.4148 H       1  UNL1        0.0230
     12 H           0.6554    0.2452   -0.9141 H       1  UNL1        0.0230
     13 H           0.6554    0.8288    0.7328 H       1  UNL1        0.0230
     14 H           2.8888   -0.7057   -0.5771 H       1  UNL1        0.0263
     15 H           2.8888   -0.1220    1.0698 H       1  UNL1        0.0263
     16 H           2.6821    2.1796    0.2541 H       1  UNL1        0.0266
     17 H           2.6821    1.5959   -1.3928 H       1  UNL1        0.0266
     18 H           4.9154    0.6451   -1.0558 H       1  UNL1        0.0287
     19 H           4.9154    1.2287    0.5911 H       1  UNL1        0.0287
     20 H           4.7088    3.5303   -0.2246 H       1  UNL1        0.0560
     21 H           4.7088    2.9467   -1.8715 H       1  UNL1        0.0560
     22 H           6.6021    4.7922   -0.6718 H       1  UNL1        0.0560
     23 H           6.6021    4.2086   -2.3187 H       1  UNL1        0.0560
     24 H           8.8354    3.2577   -1.9817 H       1  UNL1        0.0309
     25 H           8.8354    3.8414   -0.3348 H       1  UNL1        0.0309
     26 H           8.6288    6.1430   -1.1505 H       1  UNL1        0.0558
     27 H           8.6288    5.5593   -2.7974 H       1  UNL1        0.0558
     28 H          10.7288    5.2093   -0.9062 H       1  UNL1        0.2094
@<TRIPOS>BOND
     1     1     2    1
     2     2     3    1
     3     3     4    1
     4     4     5    1
     5     5     6    1
     6     6     7    1
     7     7     8    1
     8     8     9    1
     9     9    10    1
    10     1    11    1
    11     1    12    1
    12     1    13    1
    13     2    14    1
    14     2    15    1
    15     3    16    1
    16     3    17    1
    17     4    18    1
    18     4    19    1
    19     5    20    1
    20     5    21    1
    21     7    22    1
    22     7    23    1
    23     8    24    1
    24     8    25    1
    25     9    26    1
    26     9    27    1
    27    10    28    1
