@<TRIPOS>MOLECULE
*****
 30 29 0 0 0
SMALL
GASTEIGER

@<TRIPOS>ATOM
      1 C           1.0538   -0.0518    0.0665 C.3     1  UNL1       -0.0416
      2 C           2.5738   -0.0518    0.0665 C.3     1  UNL1        0.0449
      3 O           3.0471    1.2523   -0.2362 O.3     1  UNL1       -0.3778
      4 C           4.4671    1.2523   -0.2362 C.3     1  UNL1        0.0710
      5 C           4.9738    2.6483   -0.5603 C.3     1  UNL1        0.0711
      6 O           6.3938    2.6483   -0.5603 O.3     1  UNL1       -0.3752
      7 C           6.8671    3.9524   -0.8630 C.3     1  UNL1        0.0711
      8 C           8.3871    3.9524   -0.8630 C.3     1  UNL1        0.0711
      9 O           8.8604    5.2565   -1.1657 O.3     1  UNL1       -0.3752
     10 C          10.2804    5.2565   -1.1657 C.3     1  UNL1        0.0708
     11 C          10.7871    6.6525   -1.4898 C.3     1  UNL1        0.0676
     12 O          12.2071    6.6525   -1.4898 O.3     1  UNL1       -0.3927
     13 H           0.6971   -1.0345    0.2946 H       1  UNL1        0.0252
     14 H           0.6971    0.2420   -0.8986 H       1  UNL1        0.0252
     15 H           0.6971    0.6371    0.8035 H       1  UNL1        0.0252
     16 H           2.9305   -0.7407   -0.6704 H       1  UNL1        0.0557
     17 H           2.9305   -0.3456    1.0316 H       1  UNL1        0.0557
     18 H           4.8238    0.5634   -0.9732 H       1  UNL1        0.0583
     19 H           4.8238    0.9586    0.7289 H       1  UNL1        0.0583
     20 H           4.6171    3.3372    0.1767 H       1  UNL1        0.0583
     21 H           4.6171    2.9421   -1.5253 H       1  UNL1        0.0583
     22 H           6.5105    4.6413   -0.1260 H       1  UNL1        0.0583
     23 H           6.5104    4.2462   -1.8281 H       1  UNL1        0.0583
     24 H           8.7438    3.2635   -1.6000 H       1  UNL1        0.0583
     25 H           8.7438    3.6586    0.1021 H       1  UNL1        0.0583
     26 H          10.6371    4.5676   -1.9027 H       1  UNL1        0.0583
     27 H          10.6371    4.9627   -0.2007 H       1  UNL1        0.0583
     28 H          10.4304    7.3414   -0.7528 H       1  UNL1        0.0580
     29 H          10.4304    6.9463   -2.4549 H       1  UNL1        0.0580
     30 H          12.5304    6.3861   -0.6149 H       1  UNL1        0.2095
@<TRIPOS>BOND
     1     1     2    1
     2     2     3    1
     3     3     4    1
     4     4     5    1
     5     5     6    1
     6     6     7    1
     7     7     8    1
     8     8     9    1
     9     9    10    1
    10    10    11    1
    11    11    12    1
    12     1    13    1
    13     1    14    1
    14     1    15    1
    15     2    16    1
    16     2    17    1
    17     4    18    1
    18     4    19    1
    19     5    20    1
    20     5    21    1
    21     7    22    1
    22     7    23    1
    23     8    24    1
    24     8    25    1
    25    10    26    1
    26    10    27    1
    27    11    28    1
    28    11    29    1
    29    12    30    1
