@<TRIPOS>MOLECULE
*****
 33 34 0 0 0
SMALL
GASTEIGER

@<TRIPOS>ATOM
      1 C           0.9054   -0.0264    0.0187 C.1     1  UNL1       -0.1139
      2 C           2.2092   -0.0264    0.0187 C.1     1  UNL1       -0.0681
      3 C           3.7292   -0.0264    0.0187 C.ar    1  UNL1        0.0429
      4 C           4.4493   -1.1992   -0.4059 C.ar    1  UNL1       -0.0416
      5 C           5.8895   -1.1992   -0.4059 C.ar    1  UNL1       -0.0205
      6 C           6.6096   -2.3719   -0.8305 C.ar    1  UNL1        0.1214
      7 N           5.8746   -3.5690   -1.2638 N.pl3   1  UNL1       -0.3127
      8 C           4.4046   -3.5690   -1.2638 C.3     1  UNL1        0.0263
      9 C           3.8980   -4.9164   -1.7517 C.3     1  UNL1        0.0147
     10 N           2.4280   -4.9164   -1.7517 N.3     1  UNL1       -0.2996
     11 C           1.9380   -3.8563   -2.6443 C.3     1  UNL1       -0.0038
     12 C           2.4446   -2.5088   -2.1565 C.3     1  UNL1       -0.0524
     13 C           1.9380   -6.2196   -2.2235 C.3     1  UNL1        0.0147
     14 C           6.6096   -4.7660   -1.6972 C.3     1  UNL1        0.0263
     15 N           8.0025   -2.3719   -0.8305 N.ar    1  UNL1       -0.2391
     16 C           4.4493    1.1463    0.4433 C.ar    1  UNL1        0.0450
     17 H          -0.0886   -0.0264    0.0187 H       1  UNL1        0.1232
     18 H           3.9333   -2.0395   -0.7101 H       1  UNL1        0.0631
     19 H           6.4055   -0.3588   -0.1016 H       1  UNL1        0.0652
     20 H           4.0480   -2.7973   -1.9136 H       1  UNL1        0.0477
     21 H           4.0480   -3.3921   -0.2707 H       1  UNL1        0.0477
     22 H           4.2546   -5.6881   -1.1019 H       1  UNL1        0.0442
     23 H           4.2546   -5.0933   -2.7448 H       1  UNL1        0.0442
     24 H           0.8680   -3.8563   -2.6443 H       1  UNL1        0.0424
     25 H           2.2946   -4.0332   -3.6375 H       1  UNL1        0.0424
     26 H           2.0880   -2.3319   -1.1633 H       1  UNL1        0.0242
     27 H           2.0880   -1.7371   -2.8063 H       1  UNL1        0.0242
     28 H           3.5146   -2.5088   -2.1565 H       1  UNL1        0.0242
     29 H           1.4968   -6.3287   -3.1921 H       1  UNL1        0.0442
     30 H           1.3031   -7.0073   -1.8752 H       1  UNL1        0.0442
     31 H           7.1870   -4.6753   -2.5935 H       1  UNL1        0.0477
     32 H           7.3758   -5.2743   -1.1500 H       1  UNL1        0.0477
     33 H           4.3279    2.1100    0.7921 H       1  UNL1        0.0843
@<TRIPOS>BOND
     1     1     2    3
     2     2     3    1
     3     3     4   ar
     4     4     5   ar
     5     5     6   ar
     6     6     7    1
     7     7     8    1
     8     8     9    1
     9     9    10    1
    10    10    11    1
    11    11    12    1
    12    10    13    1
    13    13    14    1
    14     7    14    1
    15     6    15   ar
    16    15    16   ar
    17     3    16   ar
    18     1    17    1
    19     4    18    1
    20     5    19    1
    21     8    20    1
    22     8    21    1
    23     9    22    1
    24     9    23    1
    25    11    24    1
    26    11    25    1
    27    12    26    1
    28    12    27    1
    29    12    28    1
    30    13    29    1
    31    13    30    1
    32    14    31    1
    33    14    32    1
    34    16    33    1
