@<TRIPOS>MOLECULE
*****
 16 15 0 0 0
SMALL
GASTEIGER

@<TRIPOS>ATOM
      1 C           0.9372   -0.0614    0.0479 C.3     1  UNL1       -0.0416
      2 C           2.4572   -0.0614    0.0479 C.3     1  UNL1        0.0449
      3 O           2.9306    1.2765    0.0959 O.3     1  UNL1       -0.3778
      4 C           4.3506    1.2765    0.0959 C.3     1  UNL1        0.0707
      5 C           4.8572    2.7087    0.1473 C.3     1  UNL1        0.0676
      6 O           6.2772    2.7087    0.1473 O.3     1  UNL1       -0.3927
      7 H           0.5806   -1.0696    0.0116 H       1  UNL1        0.0252
      8 H           0.5806    0.4740   -0.8071 H       1  UNL1        0.0252
      9 H           0.5806    0.4113    0.9390 H       1  UNL1        0.0252
     10 H           2.8139   -0.5341   -0.8433 H       1  UNL1        0.0557
     11 H           2.8139   -0.5968    0.9028 H       1  UNL1        0.0557
     12 H           4.7072    0.8038   -0.7953 H       1  UNL1        0.0583
     13 H           4.7072    0.7411    0.9509 H       1  UNL1        0.0583
     14 H           4.5005    3.1814    1.0385 H       1  UNL1        0.0580
     15 H           4.5005    3.2441   -0.7077 H       1  UNL1        0.0580
     16 H           6.6005    2.2233    0.9224 H       1  UNL1        0.2095
@<TRIPOS>BOND
     1     1     2    1
     2     2     3    1
     3     3     4    1
     4     4     5    1
     5     5     6    1
     6     1     7    1
     7     1     8    1
     8     1     9    1
     9     2    10    1
    10     2    11    1
    11     4    12    1
    12     4    13    1
    13     5    14    1
    14     5    15    1
    15     6    16    1
