@<TRIPOS>MOLECULE
*****
 16 15 0 0 0
SMALL
GASTEIGER

@<TRIPOS>ATOM
      1 C           0.9371   -0.0620   -0.0469 C.3     1  UNL1        0.0364
      2 O           2.3571   -0.0620   -0.0469 O.3     1  UNL1       -0.3829
      3 C           2.8304   -1.0603    0.8452 C.3     1  UNL1        0.0494
      4 C           4.3504   -1.0603    0.8452 C.3     1  UNL1       -0.0062
      5 C           4.8571   -2.1289    1.8001 C.3     1  UNL1        0.0463
      6 O           6.2771   -2.1289    1.8001 O.3     1  UNL1       -0.3949
      7 H           0.5804    0.6902   -0.7191 H       1  UNL1        0.0523
      8 H           0.5804    0.1440    0.9407 H       1  UNL1        0.0523
      9 H           0.5804   -1.0203   -0.3622 H       1  UNL1        0.0523
     10 H           2.4738   -2.0185    0.5298 H       1  UNL1        0.0560
     11 H           2.4738   -0.8543    1.8327 H       1  UNL1        0.0560
     12 H           4.7071   -0.1020    1.1605 H       1  UNL1        0.0309
     13 H           4.7071   -1.2663   -0.1424 H       1  UNL1        0.0309
     14 H           4.5004   -3.0871    1.4847 H       1  UNL1        0.0558
     15 H           4.5004   -1.9229    2.7876 H       1  UNL1        0.0558
     16 H           6.6004   -2.3156    0.9048 H       1  UNL1        0.2094
@<TRIPOS>BOND
     1     1     2    1
     2     2     3    1
     3     3     4    1
     4     4     5    1
     5     5     6    1
     6     1     7    1
     7     1     8    1
     8     1     9    1
     9     3    10    1
    10     3    11    1
    11     4    12    1
    12     4    13    1
    13     5    14    1
    14     5    15    1
    15     6    16    1
