@<TRIPOS>MOLECULE
*****
 27 26 0 0 0
SMALL
GASTEIGER

@<TRIPOS>ATOM
      1 C           1.0808    0.0583   -0.0085 C.3     1  UNL1       -0.0653
      2 C           2.6008    0.0583   -0.0085 C.3     1  UNL1       -0.0559
      3 C           3.1075    1.2318   -0.8310 C.3     1  UNL1       -0.0533
      4 C           4.6275    1.2318   -0.8310 C.3     1  UNL1       -0.0531
      5 C           5.1341    2.4053   -1.6536 C.3     1  UNL1       -0.0526
      6 C           6.6541    2.4053   -1.6536 C.3     1  UNL1       -0.0448
      7 C           7.1608    3.5787   -2.4762 C.3     1  UNL1        0.0237
      8 C           8.6808    3.5787   -2.4762 C.2     1  UNL1        0.2105
      9 N           9.4158    2.5363   -1.7455 N.am    1  UNL1       -0.3293
     10 O           9.3162    4.4800   -3.1080 O.2     1  UNL1       -0.2760
     11 H           0.7241   -0.7677    0.5706 H       1  UNL1        0.0230
     12 H           0.7241   -0.0301   -1.0134 H       1  UNL1        0.0230
     13 H           0.7241    0.9728    0.4174 H       1  UNL1        0.0230
     14 H           2.9575   -0.8562   -0.4343 H       1  UNL1        0.0263
     15 H           2.9575    0.1468    0.9965 H       1  UNL1        0.0263
     16 H           2.7508    2.1463   -0.4052 H       1  UNL1        0.0265
     17 H           2.7508    1.1434   -1.8360 H       1  UNL1        0.0265
     18 H           4.9841    0.3173   -1.2569 H       1  UNL1        0.0265
     19 H           4.9841    1.3202    0.1739 H       1  UNL1        0.0265
     20 H           4.7774    3.3198   -1.2278 H       1  UNL1        0.0265
     21 H           4.7774    2.3168   -2.6585 H       1  UNL1        0.0265
     22 H           7.0108    1.4908   -2.0795 H       1  UNL1        0.0270
     23 H           7.0108    2.4937   -0.6487 H       1  UNL1        0.0270
     24 H           6.8041    4.4933   -2.0503 H       1  UNL1        0.0358
     25 H           6.8041    3.4903   -3.4811 H       1  UNL1        0.0358
     26 H           8.9235    1.8381   -1.2561 H       1  UNL1        0.1449
     27 H          10.4003    2.5363   -1.7455 H       1  UNL1        0.1449
@<TRIPOS>BOND
     1     1     2    1
     2     2     3    1
     3     3     4    1
     4     4     5    1
     5     5     6    1
     6     6     7    1
     7     7     8    1
     8     8     9   am
     9     8    10    2
    10     1    11    1
    11     1    12    1
    12     1    13    1
    13     2    14    1
    14     2    15    1
    15     3    16    1
    16     3    17    1
    17     4    18    1
    18     4    19    1
    19     5    20    1
    20     5    21    1
    21     6    22    1
    22     6    23    1
    23     7    24    1
    24     7    25    1
    25     9    26    1
    26     9    27    1
