@<TRIPOS>MOLECULE
*****
 34 35 0 0 0
SMALL
GASTEIGER

@<TRIPOS>ATOM
      1 C           0.9437    0.0590   -0.0578 C.3     1  UNL1       -0.0038
      2 C           2.4637    0.0590   -0.0578 C.3     1  UNL1       -0.0364
      3 C           2.9703   -1.1848   -0.7696 C.3     1  UNL1       -0.0260
      4 C           2.4637   -1.1902   -2.2027 C.3     1  UNL1        0.0019
      5 N           0.9937   -1.1902   -2.2027 N.3     1  UNL1       -0.2997
      6 C           0.5037   -1.1955   -3.5886 C.3     1  UNL1        0.0115
      7 C          -1.0163   -1.1955   -3.5886 C.3     1  UNL1        0.0087
      8 N          -1.5063   -1.2008   -4.9745 N.3     1  UNL1       -0.3136
      9 C          -2.9763   -1.2008   -4.9745 C.3     1  UNL1        0.0087
     10 C           0.5037    0.0127   -1.5143 C.3     1  UNL1        0.0115
     11 C           4.4903   -1.1848   -0.7696 C.3     1  UNL1       -0.0364
     12 C           4.9970   -2.4286   -1.4814 C.3     1  UNL1       -0.0038
     13 N           0.4537    1.2619    0.6306 N.3     1  UNL1       -0.3160
     14 H           0.5870   -0.8127    0.4499 H       1  UNL1        0.0424
     15 H           0.5870    0.0552   -1.0666 H       1  UNL1        0.0424
     16 H           2.8203    0.0629    0.9510 H       1  UNL1        0.0281
     17 H           2.8203    0.9307   -0.5655 H       1  UNL1        0.0281
     18 H           2.6137   -2.0565   -0.2619 H       1  UNL1        0.0314
     19 H           2.8203   -2.0658   -2.7038 H       1  UNL1        0.0429
     20 H           2.8203   -0.3185   -2.7104 H       1  UNL1        0.0429
     21 H           0.8603   -2.0711   -4.0897 H       1  UNL1        0.0439
     22 H           0.8603   -0.3238   -4.0963 H       1  UNL1        0.0439
     23 H          -1.3730   -0.3199   -3.0875 H       1  UNL1        0.0437
     24 H          -1.3730   -2.0672   -3.0809 H       1  UNL1        0.0437
     25 H          -1.1663   -2.0354   -5.4522 H       1  UNL1        0.1220
     26 H          -3.5439   -2.1059   -4.9155 H       1  UNL1        0.0437
     27 H          -3.8014   -0.7690   -5.5015 H       1  UNL1        0.0437
     28 H           0.2320   -0.0821   -0.4837 H       1  UNL1        0.0439
     29 H           1.0002    0.9478   -1.3597 H       1  UNL1        0.0439
     30 H           4.8470   -1.1809    0.2392 H       1  UNL1        0.0281
     31 H           4.8470   -0.3130   -1.2773 H       1  UNL1        0.0281
     32 H           5.3351   -3.3112   -0.9800 H       1  UNL1        0.0424
     33 H           5.4996   -2.8229   -2.3398 H       1  UNL1        0.0424
     34 H           0.1313    2.1033    0.1526 H       1  UNL1        0.1219
@<TRIPOS>BOND
     1     1     2    1
     2     2     3    1
     3     3     4    1
     4     4     5    1
     5     5     6    1
     6     6     7    1
     7     7     8    1
     8     8     9    1
     9     9    10    1
    10     5    10    1
    11     3    11    1
    12    11    12    1
    13    12    13    1
    14     1    13    1
    15     1    14    1
    16     1    15    1
    17     2    16    1
    18     2    17    1
    19     3    18    1
    20     4    19    1
    21     4    20    1
    22     6    21    1
    23     6    22    1
    24     7    23    1
    25     7    24    1
    26     8    25    1
    27     9    26    1
    28     9    27    1
    29    10    28    1
    30    10    29    1
    31    11    30    1
    32    11    31    1
    33    12    32    1
    34    12    33    1
    35    13    34    1
