@<TRIPOS>MOLECULE
*****
 44 44 0 0 0
SMALL
GASTEIGER

@<TRIPOS>ATOM
      1 C           1.0051    0.0846    0.0531 C.3     1  UNL1       -0.0649
      2 C           2.5251    0.0846    0.0531 C.3     1  UNL1       -0.0504
      3 C           3.0318    1.4927    0.3195 C.3     1  UNL1       -0.0074
      4 C           4.5518    1.4927    0.3195 C.ar    1  UNL1        0.0828
      5 C           5.2719    2.7182    0.5513 C.ar    1  UNL1        0.0486
      6 N           6.6647    2.7182    0.5513 N.ar    1  UNL1       -0.2514
      7 C           7.3997    1.4673    0.3147 C.3     1  UNL1        0.0436
      8 C           6.4120    0.3321    0.1000 C.3     1  UNL1       -0.0251
      9 C           7.1720   -0.9613   -0.1447 C.3     1  UNL1        0.0256
     10 C           6.1842   -2.0965   -0.3595 C.2     1  UNL1        0.2131
     11 O           4.9347   -1.8683   -0.3163 O.2     1  UNL1       -0.2758
     12 N           6.6742   -3.4583   -0.6171 N.am    1  UNL1       -0.3153
     13 C           5.7190   -4.5561   -0.8248 C.3     1  UNL1        0.0116
     14 C           6.4790   -5.8495   -1.0694 C.3     1  UNL1       -0.0362
     15 C           5.4912   -6.9847   -1.2842 C.3     1  UNL1       -0.0392
     16 C           6.2512   -8.2781   -1.5289 C.3     1  UNL1       -0.0069
     17 N           5.2960   -9.3760   -1.7366 N.3     1  UNL1       -0.3300
     18 N           7.3375    3.8631    0.7679 N.ar    1  UNL1       -0.0655
     19 N           5.2482    0.3075    0.0953 N.ar    1  UNL1       -0.1345
     20 H           0.6485   -0.9067   -0.1344 H       1  UNL1        0.0230
     21 H           0.6485    0.7426   -0.7115 H       1  UNL1        0.0230
     22 H           0.6485    0.4178    1.0053 H       1  UNL1        0.0230
     23 H           2.8818   -0.2487   -0.8991 H       1  UNL1        0.0266
     24 H           2.8818   -0.5734    0.8178 H       1  UNL1        0.0266
     25 H           2.6751    1.8259    1.2717 H       1  UNL1        0.0329
     26 H           2.6751    2.1507   -0.4452 H       1  UNL1        0.0329
     27 H           4.7559    3.5963    0.7175 H       1  UNL1        0.0845
     28 H           8.0149    1.2492    1.1626 H       1  UNL1        0.0509
     29 H           8.0149    1.5740   -0.5543 H       1  UNL1        0.0509
     30 H           5.7968    0.5502   -0.7479 H       1  UNL1        0.0287
     31 H           5.7968    0.2254    0.9689 H       1  UNL1        0.0287
     32 H           7.7871   -1.1794    0.7032 H       1  UNL1        0.0359
     33 H           7.7871   -0.8546   -1.0137 H       1  UNL1        0.0359
     34 H           7.6422   -3.6350   -0.6505 H       1  UNL1        0.1487
     35 H           5.1038   -4.3380   -1.6727 H       1  UNL1        0.0462
     36 H           5.1038   -4.6628    0.0442 H       1  UNL1        0.0462
     37 H           7.0941   -6.0676   -0.2216 H       1  UNL1        0.0281
     38 H           7.0941   -5.7428   -1.9384 H       1  UNL1        0.0281
     39 H           4.8761   -6.7666   -2.1321 H       1  UNL1        0.0278
     40 H           4.8761   -7.0914   -0.4152 H       1  UNL1        0.0278
     41 H           6.8664   -8.4962   -0.6810 H       1  UNL1        0.0422
     42 H           6.8664   -8.1714   -2.3978 H       1  UNL1        0.0422
     43 H           4.7096   -9.4777   -0.9082 H       1  UNL1        0.1182
     44 H           5.8060  -10.2439   -1.9008 H       1  UNL1        0.1182
@<TRIPOS>BOND
     1     1     2    1
     2     2     3    1
     3     3     4    1
     4     4     5   ar
     5     5     6   ar
     6     6     7    1
     7     7     8    1
     8     8     9    1
     9     9    10    1
    10    10    11    2
    11    10    12   am
    12    12    13    1
    13    13    14    1
    14    14    15    1
    15    15    16    1
    16    16    17    1
    17     6    18   ar
    18    18    19   ar
    19     4    19   ar
    20     1    20    1
    21     1    21    1
    22     1    22    1
    23     2    23    1
    24     2    24    1
    25     3    25    1
    26     3    26    1
    27     5    27    1
    28     7    28    1
    29     7    29    1
    30     8    30    1
    31     8    31    1
    32     9    32    1
    33     9    33    1
    34    12    34    1
    35    13    35    1
    36    13    36    1
    37    14    37    1
    38    14    38    1
    39    15    39    1
    40    15    40    1
    41    16    41    1
    42    16    42    1
    43    17    43    1
    44    17    44    1
