@<TRIPOS>MOLECULE
*****
 20 19 0 0 0
SMALL
GASTEIGER

@<TRIPOS>ATOM
      1 C           1.0479   -0.0605    0.0636 C.3     1  UNL1        0.0365
      2 O           2.4679   -0.0605    0.0636 O.3     1  UNL1       -0.3807
      3 C           2.9412    0.4191    1.3136 C.3     1  UNL1        0.0706
      4 C           4.4612    0.4191    1.3136 C.3     1  UNL1        0.0711
      5 O           4.9346    0.8987    2.5635 O.3     1  UNL1       -0.3752
      6 C           6.3546    0.8987    2.5635 C.3     1  UNL1        0.0708
      7 C           6.8612    1.4120    3.9015 C.3     1  UNL1        0.0676
      8 O           8.2812    1.4120    3.9015 O.3     1  UNL1       -0.3927
      9 H           0.6912   -0.4218   -0.8782 H       1  UNL1        0.0524
     10 H           0.6912    0.9359    0.2216 H       1  UNL1        0.0524
     11 H           0.6912   -0.6955    0.8475 H       1  UNL1        0.0524
     12 H           2.5846   -0.2159    2.0975 H       1  UNL1        0.0582
     13 H           2.5846    1.4155    1.4716 H       1  UNL1        0.0582
     14 H           4.8179    1.0541    0.5297 H       1  UNL1        0.0583
     15 H           4.8179   -0.5773    1.1556 H       1  UNL1        0.0583
     16 H           6.7112    1.5337    1.7797 H       1  UNL1        0.0583
     17 H           6.7112   -0.0977    2.4056 H       1  UNL1        0.0583
     18 H           6.5045    0.7770    4.6854 H       1  UNL1        0.0580
     19 H           6.5045    2.4084    4.0595 H       1  UNL1        0.0580
     20 H           8.6045    0.5088    3.7583 H       1  UNL1        0.2095
@<TRIPOS>BOND
     1     1     2    1
     2     2     3    1
     3     3     4    1
     4     4     5    1
     5     5     6    1
     6     6     7    1
     7     7     8    1
     8     1     9    1
     9     1    10    1
    10     1    11    1
    11     3    12    1
    12     3    13    1
    13     4    14    1
    14     4    15    1
    15     6    16    1
    16     6    17    1
    17     7    18    1
    18     7    19    1
    19     8    20    1
