@<TRIPOS>MOLECULE
*****
 46 46 0 0 0
SMALL
GASTEIGER

@<TRIPOS>ATOM
      1 C           0.9381   -0.0194   -0.0761 C.3     1  UNL1        0.0028
      2 N           2.4081   -0.0194   -0.0761 N.am    1  UNL1       -0.3076
      3 C           3.1431    0.4647   -1.2535 C.3     1  UNL1        0.0028
      4 C           3.1431   -0.5036    1.1013 C.2     1  UNL1        0.2151
      5 O           2.5076   -0.9221    2.1193 O.2     1  UNL1       -0.2756
      6 C           4.6631   -0.5036    1.1013 C.3     1  UNL1        0.0258
      7 C           5.1697   -1.0486    2.4267 C.3     1  UNL1       -0.0250
      8 C           6.6897   -1.0486    2.4267 C.3     1  UNL1        0.0436
      9 N           7.1797   -1.5756    3.7085 N.ar    1  UNL1       -0.2514
     10 C           8.5491   -1.6724    3.9439 C.ar    1  UNL1        0.0509
     11 C           9.0292   -2.1888    5.1997 C.ar    1  UNL1        0.1083
     12 C           8.0414   -2.6282    6.2682 C.3     1  UNL1        0.0930
     13 O           6.7162   -2.4341    5.7964 O.3     1  UNL1       -0.3713
     14 C           5.7935   -2.8446    6.7946 C.3     1  UNL1        0.0715
     15 C           4.3750   -2.6369    6.2895 C.3     1  UNL1        0.0711
     16 O           3.4522   -3.0473    7.2877 O.3     1  UNL1       -0.3763
     17 C           2.1271   -2.8533    6.8158 C.3     1  UNL1        0.0600
     18 C           1.1393   -3.2927    7.8843 C.3     1  UNL1        0.0166
     19 N          -0.2325   -3.0918    7.3958 N.3     1  UNL1       -0.3279
     20 N          10.3985   -2.2856    5.4351 N.ar    1  UNL1       -0.1322
     21 N           6.3054   -1.9645    4.6543 N.ar    1  UNL1       -0.0654
     22 H           0.5814    0.3642   -1.0091 H       1  UNL1        0.0428
     23 H           0.5814    0.5968    0.7227 H       1  UNL1        0.0428
     24 H           0.5814   -1.0193    0.0582 H       1  UNL1        0.0428
     25 H           2.4477    0.7740   -2.0057 H       1  UNL1        0.0428
     26 H           3.7582   -0.3217   -1.6381 H       1  UNL1        0.0428
     27 H           3.7582    1.2943   -0.9737 H       1  UNL1        0.0428
     28 H           5.0197    0.4963    0.9671 H       1  UNL1        0.0359
     29 H           5.0197   -1.1198    0.3026 H       1  UNL1        0.0359
     30 H           4.8131   -2.0484    2.5610 H       1  UNL1        0.0287
     31 H           4.8131   -0.4324    3.2255 H       1  UNL1        0.0287
     32 H           7.0464   -0.0487    2.2925 H       1  UNL1        0.0509
     33 H           7.0464   -1.6647    1.6280 H       1  UNL1        0.0509
     34 H           9.2197   -1.3741    3.2185 H       1  UNL1        0.0846
     35 H           8.1930   -2.0479    7.1544 H       1  UNL1        0.0626
     36 H           8.1930   -3.6639    6.4899 H       1  UNL1        0.0626
     37 H           5.9451   -2.2643    7.6807 H       1  UNL1        0.0583
     38 H           5.9451   -3.8803    7.0162 H       1  UNL1        0.0583
     39 H           4.2234   -3.2171    5.4033 H       1  UNL1        0.0583
     40 H           4.2234   -1.6011    6.0678 H       1  UNL1        0.0583
     41 H           1.9755   -3.4336    5.9297 H       1  UNL1        0.0572
     42 H           1.9755   -1.8175    6.5941 H       1  UNL1        0.0572
     43 H           1.2909   -2.7124    8.7704 H       1  UNL1        0.0444
     44 H           1.2909   -4.3284    8.1059 H       1  UNL1        0.0444
     45 H          -0.3770   -2.1044    7.1845 H       1  UNL1        0.1183
     46 H          -0.8953   -3.3866    8.1128 H       1  UNL1        0.1183
@<TRIPOS>BOND
     1     1     2    1
     2     2     3    1
     3     2     4   am
     4     4     5    2
     5     4     6    1
     6     6     7    1
     7     7     8    1
     8     8     9    1
     9     9    10   ar
    10    10    11   ar
    11    11    12    1
    12    12    13    1
    13    13    14    1
    14    14    15    1
    15    15    16    1
    16    16    17    1
    17    17    18    1
    18    18    19    1
    19    11    20   ar
    20    20    21   ar
    21     9    21   ar
    22     1    22    1
    23     1    23    1
    24     1    24    1
    25     3    25    1
    26     3    26    1
    27     3    27    1
    28     6    28    1
    29     6    29    1
    30     7    30    1
    31     7    31    1
    32     8    32    1
    33     8    33    1
    34    10    34    1
    35    12    35    1
    36    12    36    1
    37    14    37    1
    38    14    38    1
    39    15    39    1
    40    15    40    1
    41    17    41    1
    42    17    42    1
    43    18    43    1
    44    18    44    1
    45    19    45    1
    46    19    46    1
