@<TRIPOS>MOLECULE
*****
 47 46 0 0 0
SMALL
GASTEIGER

@<TRIPOS>ATOM
      1 C           1.0806    0.0545    0.0230 C.3     1  UNL1       -0.0653
      2 C           2.6006    0.0545    0.0230 C.3     1  UNL1       -0.0559
      3 C           3.1072   -0.9888   -0.9594 C.3     1  UNL1       -0.0533
      4 C           4.6272   -0.9888   -0.9594 C.3     1  UNL1       -0.0531
      5 C           5.1339   -2.0321   -1.9418 C.3     1  UNL1       -0.0531
      6 C           6.6539   -2.0321   -1.9418 C.3     1  UNL1       -0.0531
      7 C           7.1606   -3.0754   -2.9242 C.3     1  UNL1       -0.0530
      8 C           8.6806   -3.0754   -2.9242 C.3     1  UNL1       -0.0516
      9 C           9.1872   -4.1188   -3.9067 C.3     1  UNL1       -0.0374
     10 C          10.7072   -4.1188   -3.9067 C.3     1  UNL1        0.0116
     11 N          11.1972   -5.1278   -4.8568 N.am    1  UNL1       -0.3153
     12 C          12.6425   -5.3233   -5.0409 C.2     1  UNL1        0.2130
     13 O          13.4683   -4.6201   -4.3787 O.2     1  UNL1       -0.2758
     14 C          13.1491   -6.3667   -6.0233 C.3     1  UNL1        0.0243
     15 C          14.6691   -6.3667   -6.0233 C.3     1  UNL1       -0.0384
     16 C          15.1758   -7.4100   -7.0058 C.3     1  UNL1        0.0032
     17 C          16.6958   -7.4100   -7.0058 C.2     1  UNL1        0.1203
     18 O          17.3312   -8.2113   -7.7603 O.2     1  UNL1       -0.3010
     19 H           0.7239    0.7890    0.7146 H       1  UNL1        0.0230
     20 H           0.7239   -0.9116    0.3133 H       1  UNL1        0.0230
     21 H           0.7239    0.2862   -0.9588 H       1  UNL1        0.0230
     22 H           2.9573   -0.1772    1.0049 H       1  UNL1        0.0263
     23 H           2.9573    1.0207   -0.2672 H       1  UNL1        0.0263
     24 H           2.7506   -0.7571   -1.9412 H       1  UNL1        0.0265
     25 H           2.7506   -1.9549   -0.6691 H       1  UNL1        0.0265
     26 H           4.9839   -1.2205    0.0225 H       1  UNL1        0.0265
     27 H           4.9839   -0.0226   -1.2496 H       1  UNL1        0.0265
     28 H           4.7772   -1.8004   -2.9236 H       1  UNL1        0.0265
     29 H           4.7772   -2.9983   -1.6515 H       1  UNL1        0.0265
     30 H           7.0106   -2.2638   -0.9600 H       1  UNL1        0.0265
     31 H           7.0106   -1.0660   -2.2321 H       1  UNL1        0.0265
     32 H           6.8039   -2.8437   -3.9061 H       1  UNL1        0.0265
     33 H           6.8039   -4.0416   -2.6340 H       1  UNL1        0.0265
     34 H           9.0372   -3.3071   -1.9424 H       1  UNL1        0.0266
     35 H           9.0372   -2.1093   -3.2145 H       1  UNL1        0.0266
     36 H           8.8306   -3.8871   -4.8885 H       1  UNL1        0.0280
     37 H           8.8306   -5.0849   -3.6164 H       1  UNL1        0.0280
     38 H          11.0639   -4.3505   -2.9248 H       1  UNL1        0.0462
     39 H          11.0639   -3.1526   -4.1969 H       1  UNL1        0.0462
     40 H          10.5575   -5.6726   -5.3697 H       1  UNL1        0.1487
     41 H          12.7925   -6.1350   -7.0052 H       1  UNL1        0.0358
     42 H          12.7925   -7.3328   -5.7331 H       1  UNL1        0.0358
     43 H          15.0258   -6.5984   -5.0415 H       1  UNL1        0.0274
     44 H          15.0258   -5.4005   -6.3136 H       1  UNL1        0.0274
     45 H          14.8191   -7.1783   -7.9876 H       1  UNL1        0.0339
     46 H          14.8191   -8.3761   -6.7155 H       1  UNL1        0.0339
     47 H          17.2118   -6.7593   -6.3931 H       1  UNL1        0.1026
@<TRIPOS>BOND
     1     1     2    1
     2     2     3    1
     3     3     4    1
     4     4     5    1
     5     5     6    1
     6     6     7    1
     7     7     8    1
     8     8     9    1
     9     9    10    1
    10    10    11    1
    11    11    12   am
    12    12    13    2
    13    12    14    1
    14    14    15    1
    15    15    16    1
    16    16    17    1
    17    17    18    2
    18     1    19    1
    19     1    20    1
    20     1    21    1
    21     2    22    1
    22     2    23    1
    23     3    24    1
    24     3    25    1
    25     4    26    1
    26     4    27    1
    27     5    28    1
    28     5    29    1
    29     6    30    1
    30     6    31    1
    31     7    32    1
    32     7    33    1
    33     8    34    1
    34     8    35    1
    35     9    36    1
    36     9    37    1
    37    10    38    1
    38    10    39    1
    39    11    40    1
    40    14    41    1
    41    14    42    1
    42    15    43    1
    43    15    44    1
    44    16    45    1
    45    16    46    1
    46    17    47    1
