@<TRIPOS>MOLECULE
*****
 3 2 0 0 0
SMALL
GASTEIGER

@<TRIPOS>ATOM
      1 O           1.0766    0.0498   -0.0406 O.3     1  HOH1       -0.4105
      2 H           2.0466    0.0498   -0.0406 H       0  HOH0        0.2052
      3 H           0.7532    0.8528    0.3971 H       0  HOH0        0.2052
@<TRIPOS>BOND
     1     1     2    1
     2     1     3    1
