@<TRIPOS>MOLECULE
*****
 51 53 0 0 0
SMALL
GASTEIGER

@<TRIPOS>ATOM
      1 C           1.0690   -0.0477   -0.0544 C.ar    1  UNL1       -0.0615
      2 C           2.5092   -0.0477   -0.0544 C.ar    1  UNL1       -0.0583
      3 C           3.2293    0.0512    1.1890 C.ar    1  UNL1       -0.0199
      4 C           4.6695    0.0512    1.1890 C.ar    1  UNL1        0.1206
      5 O           5.3795   -0.0464   -0.0369 O.3     1  UNL1       -0.4907
      6 C           4.6695   -0.1439   -1.2628 C.3     1  UNL1        0.1022
      7 C           5.6573   -0.2355   -2.4145 C.3     1  UNL1        0.0332
      8 N           4.9223   -0.3365   -3.6835 N.3     1  UNL1       -0.2967
      9 C           5.8775   -0.4251   -4.7973 C.3     1  UNL1        0.0118
     10 C           5.1175   -0.5295   -6.1095 C.3     1  UNL1        0.0117
     11 N           6.0728   -0.6181   -7.2233 N.3     1  UNL1       -0.2996
     12 C           6.9179   -1.8084   -7.0505 C.3     1  UNL1        0.0019
     13 C           7.6779   -1.7040   -5.7383 C.3     1  UNL1       -0.0260
     14 C           8.5518   -2.9348   -5.5596 C.3     1  UNL1       -0.0364
     15 C           9.3118   -2.8304   -4.2474 C.3     1  UNL1       -0.0038
     16 N          10.1569   -4.0207   -4.0746 N.3     1  UNL1       -0.3160
     17 C          10.8919   -3.9197   -2.8055 C.3     1  UNL1       -0.0038
     18 C           6.6902   -1.6124   -4.5866 C.3     1  UNL1       -0.0364
     19 C           5.3378   -0.7191   -8.4924 C.3     1  UNL1        0.0117
     20 C           4.0772    0.8538   -3.8563 C.3     1  UNL1        0.0118
     21 C           5.3896    0.1501    2.4323 C.ar    1  UNL1       -0.0199
     22 C           0.3489   -0.1467   -1.2977 C.ar    1  UNL1       -0.0583
     23 H           0.5530    0.0231    0.8366 H       1  UNL1        0.0618
     24 H           3.0252   -0.1186   -0.9453 H       1  UNL1        0.0619
     25 H           2.7133    0.1220    2.0799 H       1  UNL1        0.0654
     26 H           4.0544    0.7225   -1.3886 H       1  UNL1        0.0709
     27 H           4.0544   -1.0193   -1.2500 H       1  UNL1        0.0709
     28 H           6.2724   -1.1019   -2.2887 H       1  UNL1        0.0460
     29 H           6.2724    0.6399   -2.4273 H       1  UNL1        0.0460
     30 H           6.4927   -1.2915   -4.6715 H       1  UNL1        0.0439
     31 H           6.4927    0.4503   -4.8101 H       1  UNL1        0.0439
     32 H           4.5024    0.3369   -6.2353 H       1  UNL1        0.0439
     33 H           4.5024   -1.4049   -6.0967 H       1  UNL1        0.0439
     34 H           7.6132   -1.8729   -7.8612 H       1  UNL1        0.0429
     35 H           6.3028   -2.6838   -7.0377 H       1  UNL1        0.0429
     36 H           8.2931   -0.8286   -5.7511 H       1  UNL1        0.0314
     37 H           9.2471   -2.9993   -6.3703 H       1  UNL1        0.0281
     38 H           7.9366   -3.8102   -5.5468 H       1  UNL1        0.0281
     39 H           8.6165   -2.7659   -3.4367 H       1  UNL1        0.0424
     40 H           9.9269   -1.9550   -4.2602 H       1  UNL1        0.0424
     41 H          10.8197   -4.0821   -4.8474 H       1  UNL1        0.1219
     42 H          11.8302   -3.4105   -2.7335 H       1  UNL1        0.0424
     43 H          11.2096   -4.5328   -1.9882 H       1  UNL1        0.0424
     44 H           6.4578   -0.6395   -4.2066 H       1  UNL1        0.0281
     45 H           5.6711   -1.9355   -4.5425 H       1  UNL1        0.0281
     46 H           5.0059   -1.6583   -8.8829 H       1  UNL1        0.0439
     47 H           5.3802   -0.3642   -9.5009 H       1  UNL1        0.0439
     48 H           3.0491    0.7777   -3.5696 H       1  UNL1        0.0439
     49 H           4.1885    1.8258   -3.4230 H       1  UNL1        0.0439
     50 H           6.0762    0.2112    3.2003 H       1  UNL1        0.0654
     51 H          -0.3377   -0.2078   -2.0657 H       1  UNL1        0.0619
@<TRIPOS>BOND
     1     1     2   ar
     2     2     3   ar
     3     3     4   ar
     4     4     5    1
     5     5     6    1
     6     6     7    1
     7     7     8    1
     8     8     9    1
     9     9    10    1
    10    10    11    1
    11    11    12    1
    12    12    13    1
    13    13    14    1
    14    14    15    1
    15    15    16    1
    16    16    17    1
    17    17    18    1
    18    13    18    1
    19    11    19    1
    20    19    20    1
    21     8    20    1
    22     4    21   ar
    23    21    22   ar
    24     1    22   ar
    25     1    23    1
    26     2    24    1
    27     3    25    1
    28     6    26    1
    29     6    27    1
    30     7    28    1
    31     7    29    1
    32     9    30    1
    33     9    31    1
    34    10    32    1
    35    10    33    1
    36    12    34    1
    37    12    35    1
    38    13    36    1
    39    14    37    1
    40    14    38    1
    41    15    39    1
    42    15    40    1
    43    16    41    1
    44    17    42    1
    45    17    43    1
    46    18    44    1
    47    18    45    1
    48    19    46    1
    49    19    47    1
    50    20    48    1
    51    20    49    1
    52    21    50    1
    53    22    51    1
