@<TRIPOS>MOLECULE
*****
 12 11 0 0 0
SMALL
GASTEIGER

@<TRIPOS>ATOM
      1 C           0.9107   -0.0144   -0.0426 C.3     1  UNL1       -0.0570
      2 C           2.4307   -0.0144   -0.0426 C.3     1  UNL1        0.0209
      3 C           2.9373    0.9935   -1.0613 C.2     1  UNL1        0.2102
      4 N           1.9821    1.7793   -1.8556 N.am    1  UNL1       -0.3293
      5 O           4.1868    1.1569   -1.2264 O.2     1  UNL1       -0.2760
      6 H           0.5540   -0.7239    0.6746 H       1  UNL1        0.0234
      7 H           0.5540   -0.2807   -1.0156 H       1  UNL1        0.0234
      8 H           0.5540    0.9615    0.2133 H       1  UNL1        0.0234
      9 H           2.7873   -0.9902   -0.2984 H       1  UNL1        0.0355
     10 H           2.7873    0.2520    0.9305 H       1  UNL1        0.0355
     11 H           1.0141    1.6528   -1.7277 H       1  UNL1        0.1449
     12 H           2.3102    2.4322   -2.5154 H       1  UNL1        0.1449
@<TRIPOS>BOND
     1     1     2    1
     2     2     3    1
     3     3     4   am
     4     3     5    2
     5     1     6    1
     6     1     7    1
     7     1     8    1
     8     2     9    1
     9     2    10    1
    10     4    11    1
    11     4    12    1
