@<TRIPOS>MOLECULE
*****
 36 35 0 0 0
SMALL
GASTEIGER

@<TRIPOS>ATOM
      1 N           0.9461   -0.0140    0.0830 N.3     1  UNL1       -0.3300
      2 C           2.4161   -0.0140    0.0830 C.3     1  UNL1       -0.0069
      3 C           2.9227    1.3000   -0.4888 C.3     1  UNL1       -0.0406
      4 C           4.4427    1.3000   -0.4888 C.3     1  UNL1       -0.0519
      5 C           4.9494    2.6140   -1.0607 C.3     1  UNL1       -0.0530
      6 C           6.4694    2.6140   -1.0607 C.3     1  UNL1       -0.0531
      7 C           6.9761    3.9281   -1.6325 C.3     1  UNL1       -0.0531
      8 C           8.4961    3.9281   -1.6325 C.3     1  UNL1       -0.0530
      9 C           9.0027    5.2421   -2.2044 C.3     1  UNL1       -0.0527
     10 C          10.5227    5.2421   -2.2044 C.3     1  UNL1       -0.0466
     11 C          11.0294    6.5561   -2.7762 C.3     1  UNL1        0.0028
     12 C          12.5494    6.5561   -2.7762 C.2     1  UNL1        0.1203
     13 O          13.1848    7.5653   -3.2154 O.2     1  UNL1       -0.3010
     14 H           0.6061   -0.8958    0.4668 H       1  UNL1        0.1182
     15 H           0.6061    0.0945   -0.8725 H       1  UNL1        0.1182
     16 H           2.7727   -0.8252   -0.5168 H       1  UNL1        0.0422
     17 H           2.7727   -0.1279    1.0854 H       1  UNL1        0.0422
     18 H           2.5661    2.1111    0.1110 H       1  UNL1        0.0277
     19 H           2.5661    1.4139   -1.4912 H       1  UNL1        0.0277
     20 H           4.7994    0.4889   -1.0886 H       1  UNL1        0.0266
     21 H           4.7994    1.1861    0.5135 H       1  UNL1        0.0266
     22 H           4.5927    3.4252   -0.4609 H       1  UNL1        0.0265
     23 H           4.5927    2.7279   -2.0630 H       1  UNL1        0.0265
     24 H           6.8261    1.8029   -1.6605 H       1  UNL1        0.0265
     25 H           6.8261    2.5002   -0.0583 H       1  UNL1        0.0265
     26 H           6.6194    4.7392   -1.0327 H       1  UNL1        0.0265
     27 H           6.6194    4.0419   -2.6349 H       1  UNL1        0.0265
     28 H           8.8527    3.1169   -2.2323 H       1  UNL1        0.0265
     29 H           8.8527    3.8142   -0.6302 H       1  UNL1        0.0265
     30 H           8.6461    6.0532   -1.6046 H       1  UNL1        0.0265
     31 H           8.6461    5.3560   -3.2067 H       1  UNL1        0.0265
     32 H          10.8794    4.4310   -2.8042 H       1  UNL1        0.0269
     33 H          10.8794    5.1282   -1.2020 H       1  UNL1        0.0269
     34 H          10.6727    7.3673   -2.1764 H       1  UNL1        0.0339
     35 H          10.6727    6.6700   -3.7786 H       1  UNL1        0.0339
     36 H          13.0654    5.7366   -2.4196 H       1  UNL1        0.1026
@<TRIPOS>BOND
     1     1     2    1
     2     2     3    1
     3     3     4    1
     4     4     5    1
     5     5     6    1
     6     6     7    1
     7     7     8    1
     8     8     9    1
     9     9    10    1
    10    10    11    1
    11    11    12    1
    12    12    13    2
    13     1    14    1
    14     1    15    1
    15     2    16    1
    16     2    17    1
    17     3    18    1
    18     3    19    1
    19     4    20    1
    20     4    21    1
    21     5    22    1
    22     5    23    1
    23     6    24    1
    24     6    25    1
    25     7    26    1
    26     7    27    1
    27     8    28    1
    28     8    29    1
    29     9    30    1
    30     9    31    1
    31    10    32    1
    32    10    33    1
    33    11    34    1
    34    11    35    1
    35    12    36    1
