@<TRIPOS>MOLECULE
*****
 35 34 0 0 0
SMALL
GASTEIGER

@<TRIPOS>ATOM
      1 C           1.0521   -0.0552   -0.0651 C.3     1  UNL1       -0.0653
      2 C           2.5721   -0.0552   -0.0651 C.3     1  UNL1       -0.0559
      3 C           3.0787    1.3771   -0.1096 C.3     1  UNL1       -0.0529
      4 C           4.5987    1.3771   -0.1096 C.3     1  UNL1       -0.0448
      5 C           5.1054    2.8095   -0.1541 C.3     1  UNL1        0.0240
      6 C           6.6254    2.8095   -0.1541 C.2     1  UNL1        0.2131
      7 O           7.2608    1.7094   -0.1199 O.2     1  UNL1       -0.2758
      8 N           7.3604    4.0820   -0.1937 N.am    1  UNL1       -0.3131
      9 C           8.8304    4.0820   -0.1937 C.3     1  UNL1        0.0350
     10 C           9.3371    5.5143   -0.2382 C.3     1  UNL1        0.0632
     11 O          10.7571    5.5143   -0.2382 O.3     1  UNL1       -0.3760
     12 C          11.2304    6.8525   -0.2797 C.3     1  UNL1        0.0708
     13 C          12.7504    6.8525   -0.2797 C.3     1  UNL1        0.0676
     14 O          13.2237    8.1906   -0.3213 O.3     1  UNL1       -0.3927
     15 H           0.6954   -1.0636   -0.0338 H       1  UNL1        0.0230
     16 H           0.6954    0.4218   -0.9540 H       1  UNL1        0.0230
     17 H           0.6954    0.4761    0.7925 H       1  UNL1        0.0230
     18 H           2.9287   -0.5865   -0.9227 H       1  UNL1        0.0263
     19 H           2.9287   -0.5323    0.8238 H       1  UNL1        0.0263
     20 H           2.7221    1.9084    0.7480 H       1  UNL1        0.0265
     21 H           2.7221    1.8542   -0.9985 H       1  UNL1        0.0265
     22 H           4.9554    0.8458   -0.9672 H       1  UNL1        0.0270
     23 H           4.9554    0.9001    0.7793 H       1  UNL1        0.0270
     24 H           4.7487    3.3408    0.7035 H       1  UNL1        0.0358
     25 H           4.7487    3.2865   -1.0430 H       1  UNL1        0.0358
     26 H           6.8681    4.9342   -0.2201 H       1  UNL1        0.1488
     27 H           9.1871    3.5507   -1.0512 H       1  UNL1        0.0484
     28 H           9.1871    3.6049    0.6952 H       1  UNL1        0.0484
     29 H           8.9804    6.0456    0.6194 H       1  UNL1        0.0575
     30 H           8.9804    5.9914   -1.1271 H       1  UNL1        0.0575
     31 H          10.8737    7.3838    0.5778 H       1  UNL1        0.0583
     32 H          10.8737    7.3295   -1.1686 H       1  UNL1        0.0583
     33 H          13.1071    6.3212   -1.1373 H       1  UNL1        0.0580
     34 H          13.1071    6.3755    0.6091 H       1  UNL1        0.0580
     35 H          12.9004    8.6231   -1.1272 H       1  UNL1        0.2095
@<TRIPOS>BOND
     1     1     2    1
     2     2     3    1
     3     3     4    1
     4     4     5    1
     5     5     6    1
     6     6     7    2
     7     6     8   am
     8     8     9    1
     9     9    10    1
    10    10    11    1
    11    11    12    1
    12    12    13    1
    13    13    14    1
    14     1    15    1
    15     1    16    1
    16     1    17    1
    17     2    18    1
    18     2    19    1
    19     3    20    1
    20     3    21    1
    21     4    22    1
    22     4    23    1
    23     5    24    1
    24     5    25    1
    25     8    26    1
    26     9    27    1
    27     9    28    1
    28    10    29    1
    29    10    30    1
    30    12    31    1
    31    12    32    1
    32    13    33    1
    33    13    34    1
    34    14    35    1
