@<TRIPOS>MOLECULE
*****
 42 42 0 0 0
SMALL
GASTEIGER

@<TRIPOS>ATOM
      1 C           1.0704   -0.0705   -0.0086 C.3     1  UNL1       -0.0636
      2 C           2.5904   -0.0705   -0.0086 C.3     1  UNL1       -0.0362
      3 C           3.0970   -1.3952    0.5382 C.3     1  UNL1        0.0429
      4 N           4.5670   -1.3952    0.5382 N.ar    1  UNL1       -0.2514
      5 C           5.2635   -2.5101    0.9985 C.ar    1  UNL1        0.0509
      6 C           6.7037   -2.5101    0.9985 C.ar    1  UNL1        0.1083
      7 C           7.4637   -1.2934    0.4962 C.3     1  UNL1        0.0930
      8 O           6.5409   -0.2957    0.0843 O.3     1  UNL1       -0.3713
      9 C           7.2509    0.8410   -0.3849 C.3     1  UNL1        0.0715
     10 C           6.2631    1.9089   -0.8257 C.3     1  UNL1        0.0711
     11 O           6.9731    3.0456   -1.2950 O.3     1  UNL1       -0.3752
     12 C           6.0504    4.0433   -1.7068 C.3     1  UNL1        0.0711
     13 C           6.8104    5.2600   -2.2091 C.3     1  UNL1        0.0711
     14 O           5.8876    6.2577   -2.6209 O.3     1  UNL1       -0.3752
     15 C           6.5976    7.3944   -3.0902 C.3     1  UNL1        0.0708
     16 C           5.6099    8.4623   -3.5310 C.3     1  UNL1        0.0676
     17 O           6.3199    9.5990   -4.0003 O.3     1  UNL1       -0.3927
     18 N           7.4001   -3.6251    1.4587 N.ar    1  UNL1       -0.1322
     19 N           5.2398   -0.3181    0.0936 N.ar    1  UNL1       -0.0654
     20 H           0.7137    0.8620   -0.3936 H       1  UNL1        0.0230
     21 H           0.7137   -0.2034    0.9914 H       1  UNL1        0.0230
     22 H           0.7137   -0.8701   -0.6237 H       1  UNL1        0.0230
     23 H           2.9470    0.7291    0.6065 H       1  UNL1        0.0280
     24 H           2.9470    0.0624   -1.0086 H       1  UNL1        0.0280
     25 H           2.7404   -2.1948   -0.0769 H       1  UNL1        0.0509
     26 H           2.7404   -1.5280    1.5382 H       1  UNL1        0.0509
     27 H           4.7475   -3.3362    1.3395 H       1  UNL1        0.0846
     28 H           8.0788   -1.5743   -0.3330 H       1  UNL1        0.0626
     29 H           8.0788   -0.9076    1.2821 H       1  UNL1        0.0626
     30 H           7.8660    0.5600   -1.2141 H       1  UNL1        0.0583
     31 H           7.8661    1.2268    0.4010 H       1  UNL1        0.0583
     32 H           5.6480    2.1899    0.0034 H       1  UNL1        0.0583
     33 H           5.6480    1.5232   -1.6117 H       1  UNL1        0.0583
     34 H           5.4352    4.3242   -0.8776 H       1  UNL1        0.0583
     35 H           5.4352    3.6575   -2.4927 H       1  UNL1        0.0583
     36 H           7.4255    4.9791   -3.0383 H       1  UNL1        0.0583
     37 H           7.4255    5.6458   -1.4232 H       1  UNL1        0.0583
     38 H           7.2128    7.1134   -3.9194 H       1  UNL1        0.0583
     39 H           7.2128    7.7801   -2.3043 H       1  UNL1        0.0583
     40 H           4.9947    8.7433   -2.7018 H       1  UNL1        0.0580
     41 H           4.9947    8.0765   -4.3169 H       1  UNL1        0.0580
     42 H           6.8775    9.9487   -3.2878 H       1  UNL1        0.2095
@<TRIPOS>BOND
     1     1     2    1
     2     2     3    1
     3     3     4    1
     4     4     5   ar
     5     5     6   ar
     6     6     7    1
     7     7     8    1
     8     8     9    1
     9     9    10    1
    10    10    11    1
    11    11    12    1
    12    12    13    1
    13    13    14    1
    14    14    15    1
    15    15    16    1
    16    16    17    1
    17     6    18   ar
    18    18    19   ar
    19     4    19   ar
    20     1    20    1
    21     1    21    1
    22     1    22    1
    23     2    23    1
    24     2    24    1
    25     3    25    1
    26     3    26    1
    27     5    27    1
    28     7    28    1
    29     7    29    1
    30     9    30    1
    31     9    31    1
    32    10    32    1
    33    10    33    1
    34    12    34    1
    35    12    35    1
    36    13    36    1
    37    13    37    1
    38    15    38    1
    39    15    39    1
    40    16    40    1
    41    16    41    1
    42    17    42    1
