@<TRIPOS>MOLECULE
*****
 31 30 0 0 0
SMALL
GASTEIGER

@<TRIPOS>ATOM
      1 C           0.9999    0.0493   -0.0870 C.3     1  UNL1        0.0121
      2 C           2.5199    0.0493   -0.0870 C.2     1  UNL1        0.2100
      3 O           3.1554   -0.7298    0.6905 O.2     1  UNL1       -0.2761
      4 N           3.2549    0.9503   -0.9863 N.am    1  UNL1       -0.3133
      5 C           4.7249    0.9503   -0.9863 C.3     1  UNL1        0.0350
      6 C           5.2316    1.9647   -1.9987 C.3     1  UNL1        0.0632
      7 O           6.6516    1.9647   -1.9987 O.3     1  UNL1       -0.3760
      8 C           7.1249    2.9123   -2.9444 C.3     1  UNL1        0.0711
      9 C           8.6449    2.9123   -2.9444 C.3     1  UNL1        0.0711
     10 O           9.1183    3.8599   -3.8901 O.3     1  UNL1       -0.3763
     11 C          10.5383    3.8599   -3.8901 C.3     1  UNL1        0.0600
     12 C          11.0449    4.8742   -4.9025 C.3     1  UNL1        0.0166
     13 N          12.5149    4.8742   -4.9025 N.3     1  UNL1       -0.3279
     14 H           0.6433   -0.6648    0.6256 H       1  UNL1        0.0322
     15 H           0.6433   -0.2109   -1.0617 H       1  UNL1        0.0322
     16 H           0.6433    1.0234    0.1750 H       1  UNL1        0.0322
     17 H           2.7627    1.5538   -1.5886 H       1  UNL1        0.1488
     18 H           5.0816   -0.0238   -1.2484 H       1  UNL1        0.0484
     19 H           5.0816    1.2105   -0.0116 H       1  UNL1        0.0484
     20 H           4.8749    2.9388   -1.7366 H       1  UNL1        0.0575
     21 H           4.8749    1.7045   -2.9734 H       1  UNL1        0.0575
     22 H           6.7683    3.8864   -2.6823 H       1  UNL1        0.0583
     23 H           6.7683    2.6521   -3.9191 H       1  UNL1        0.0583
     24 H           9.0016    1.9381   -3.2065 H       1  UNL1        0.0583
     25 H           9.0016    3.1724   -1.9697 H       1  UNL1        0.0583
     26 H          10.8949    2.8857   -4.1522 H       1  UNL1        0.0572
     27 H          10.8949    4.1200   -2.9154 H       1  UNL1        0.0572
     28 H          10.6883    5.8484   -4.6404 H       1  UNL1        0.0444
     29 H          10.6883    4.6141   -5.8772 H       1  UNL1        0.0444
     30 H          12.8549    5.1222   -3.9733 H       1  UNL1        0.1183
     31 H          12.8549    5.5549   -5.5818 H       1  UNL1        0.1183
@<TRIPOS>BOND
     1     1     2    1
     2     2     3    2
     3     2     4   am
     4     4     5    1
     5     5     6    1
     6     6     7    1
     7     7     8    1
     8     8     9    1
     9     9    10    1
    10    10    11    1
    11    11    12    1
    12    12    13    1
    13     1    14    1
    14     1    15    1
    15     1    16    1
    16     4    17    1
    17     5    18    1
    18     5    19    1
    19     6    20    1
    20     6    21    1
    21     8    22    1
    22     8    23    1
    23     9    24    1
    24     9    25    1
    25    11    26    1
    26    11    27    1
    27    12    28    1
    28    12    29    1
    29    13    30    1
    30    13    31    1
