@<TRIPOS>MOLECULE
*****
 50 50 0 0 0
SMALL
GASTEIGER

@<TRIPOS>ATOM
      1 O           0.9644   -0.0611   -0.0707 O.2     1  UNL1       -0.2755
      2 C           2.2353   -0.0611   -0.0707 C.2     1  UNL1        0.2172
      3 C           2.9953    0.8508    0.8786 C.3     1  UNL1        0.0243
      4 C           2.0076    1.6512    1.7118 C.3     1  UNL1       -0.0448
      5 C           2.7676    2.5631    2.6611 C.3     1  UNL1       -0.0526
      6 C           1.7799    3.3635    3.4943 C.3     1  UNL1       -0.0530
      7 C           2.5399    4.2754    4.4436 C.3     1  UNL1       -0.0531
      8 C           1.5521    5.0757    5.2768 C.3     1  UNL1       -0.0531
      9 C           2.3121    5.9877    6.2261 C.3     1  UNL1       -0.0531
     10 C           1.3244    6.7880    7.0592 C.3     1  UNL1       -0.0530
     11 C           2.0844    7.6999    8.0086 C.3     1  UNL1       -0.0510
     12 C           1.0966    8.5003    8.8417 C.3     1  UNL1       -0.0297
     13 C           1.8566    9.4122    9.7911 C.3     1  UNL1        0.0442
     14 O           0.9339   10.1599   10.5694 O.3     1  UNL1       -0.3950
     15 N           2.9703   -0.9430   -0.9888 N.am    1  UNL1       -0.2855
     16 C           4.4403   -0.9430   -0.9888 C.ar    1  UNL1        0.0334
     17 C           5.1604   -1.8071   -1.8883 C.ar    1  UNL1       -0.0405
     18 C           6.6006   -1.8071   -1.8883 C.ar    1  UNL1       -0.0600
     19 C           7.3207   -2.6711   -2.7878 C.ar    1  UNL1       -0.0616
     20 C           8.7609   -2.6711   -2.7878 C.ar    1  UNL1       -0.0600
     21 C           5.1604   -0.0790   -0.0893 C.ar    1  UNL1       -0.0405
     22 H           3.6105    1.5201    0.3142 H       1  UNL1        0.0358
     23 H           3.6105    0.2600    1.5247 H       1  UNL1        0.0358
     24 H           1.3924    0.9819    2.2761 H       1  UNL1        0.0270
     25 H           1.3924    2.2420    1.0657 H       1  UNL1        0.0270
     26 H           3.3828    3.2324    2.0967 H       1  UNL1        0.0265
     27 H           3.3828    1.9723    3.3072 H       1  UNL1        0.0265
     28 H           1.1647    2.6941    4.0586 H       1  UNL1        0.0265
     29 H           1.1647    3.9542    2.8482 H       1  UNL1        0.0265
     30 H           3.1550    4.9447    3.8792 H       1  UNL1        0.0265
     31 H           3.1550    3.6846    5.0897 H       1  UNL1        0.0265
     32 H           0.9369    4.4064    5.8411 H       1  UNL1        0.0265
     33 H           0.9369    5.6665    4.6306 H       1  UNL1        0.0265
     34 H           2.9273    6.6570    5.6617 H       1  UNL1        0.0265
     35 H           2.9273    5.3969    6.8722 H       1  UNL1        0.0265
     36 H           0.7092    6.1187    7.6236 H       1  UNL1        0.0265
     37 H           0.7092    7.3788    6.4131 H       1  UNL1        0.0265
     38 H           2.6995    8.3693    7.4442 H       1  UNL1        0.0266
     39 H           2.6995    7.1092    8.6547 H       1  UNL1        0.0266
     40 H           0.4815    7.8310    9.4061 H       1  UNL1        0.0287
     41 H           0.4815    9.0911    8.1956 H       1  UNL1        0.0287
     42 H           2.4718   10.0815    9.2267 H       1  UNL1        0.0557
     43 H           2.4718    8.8214   10.4372 H       1  UNL1        0.0557
     44 H           0.3762   10.6955    9.9837 H       1  UNL1        0.2094
     45 H           2.4781   -1.5337   -1.6037 H       1  UNL1        0.1548
     46 H           4.6444   -2.4262   -2.5328 H       1  UNL1        0.0636
     47 H           7.1166   -1.1879   -1.2438 H       1  UNL1        0.0618
     48 H           6.8047   -3.2903   -3.4323 H       1  UNL1        0.0618
     49 H           9.7105   -2.9510   -3.0792 H       1  UNL1        0.0618
     50 H           5.0356    0.6307    0.6494 H       1  UNL1        0.0636
@<TRIPOS>BOND
     1     1     2    2
     2     2     3    1
     3     3     4    1
     4     4     5    1
     5     5     6    1
     6     6     7    1
     7     7     8    1
     8     8     9    1
     9     9    10    1
    10    10    11    1
    11    11    12    1
    12    12    13    1
    13    13    14    1
    14     2    15   am
    15    15    16    1
    16    16    17   ar
    17    17    18   ar
    18    18    19   ar
    19    19    20   ar
    20    20    21   ar
    21    16    21   ar
    22     3    22    1
    23     3    23    1
    24     4    24    1
    25     4    25    1
    26     5    26    1
    27     5    27    1
    28     6    28    1
    29     6    29    1
    30     7    30    1
    31     7    31    1
    32     8    32    1
    33     8    33    1
    34     9    34    1
    35     9    35    1
    36    10    36    1
    37    10    37    1
    38    11    38    1
    39    11    39    1
    40    12    40    1
    41    12    41    1
    42    13    42    1
    43    13    43    1
    44    14    44    1
    45    15    45    1
    46    17    46    1
    47    18    47    1
    48    19    48    1
    49    20    49    1
    50    21    50    1
