@<TRIPOS>MOLECULE
*****
 40 40 0 0 0
SMALL
GASTEIGER

@<TRIPOS>ATOM
      1 C           1.0408    0.0834   -0.0372 C.3     1  UNL1       -0.0416
      2 C           2.5608    0.0834   -0.0372 C.3     1  UNL1        0.0453
      3 O           3.0341    0.7874   -1.1759 O.3     1  UNL1       -0.3738
      4 C           4.4541    0.7874   -1.1759 C.3     1  UNL1        0.0929
      5 C           4.9608    1.5410   -2.3948 C.ar    1  UNL1        0.1083
      6 C           6.3767    1.6794   -2.6187 C.ar    1  UNL1        0.0510
      7 N           6.8410    2.3700   -3.7356 N.ar    1  UNL1       -0.2492
      8 C           5.8857    2.9576   -4.6860 C.3     1  UNL1        0.0665
      9 C           4.4672    2.6704   -4.2214 C.3     1  UNL1        0.0673
     10 O           3.5445    3.2380   -5.1394 O.3     1  UNL1       -0.3757
     11 C           2.2193    2.9696   -4.7055 C.3     1  UNL1        0.0711
     12 C           1.2316    3.5772   -5.6881 C.3     1  UNL1        0.0711
     13 O          -0.0936    3.3089   -5.2541 O.3     1  UNL1       -0.3763
     14 C          -1.0164    3.8765   -6.1722 C.3     1  UNL1        0.0600
     15 C          -2.4349    3.5893   -5.7076 C.3     1  UNL1        0.0166
     16 N          -3.3901    4.1768   -6.6580 N.3     1  UNL1       -0.3279
     17 N           8.1638    2.4993   -3.9447 N.ar    1  UNL1       -0.0653
     18 N           4.0557    2.0978   -3.2953 N.ar    1  UNL1       -0.1322
     19 H           0.6841   -0.4471    0.8209 H       1  UNL1        0.0252
     20 H           0.6841   -0.3944   -0.9257 H       1  UNL1        0.0252
     21 H           0.6841    1.0917   -0.0068 H       1  UNL1        0.0252
     22 H           2.9174   -0.9250   -0.0676 H       1  UNL1        0.0557
     23 H           2.9174    0.5612    0.8513 H       1  UNL1        0.0557
     24 H           4.8108   -0.2209   -1.2063 H       1  UNL1        0.0626
     25 H           4.8108    1.2653   -0.2875 H       1  UNL1        0.0626
     26 H           7.0473    1.2669   -1.9515 H       1  UNL1        0.0846
     27 H           6.0373    2.5294   -5.6548 H       1  UNL1        0.0532
     28 H           6.0373    4.0156   -4.7359 H       1  UNL1        0.0532
     29 H           4.3156    3.0985   -3.2526 H       1  UNL1        0.0578
     30 H           4.3156    1.6123   -4.1715 H       1  UNL1        0.0578
     31 H           2.0677    3.3978   -3.7366 H       1  UNL1        0.0583
     32 H           2.0677    1.9116   -4.6555 H       1  UNL1        0.0583
     33 H           1.3832    3.1490   -6.6569 H       1  UNL1        0.0583
     34 H           1.3832    4.6352   -5.7381 H       1  UNL1        0.0583
     35 H          -0.8648    3.4483   -7.1410 H       1  UNL1        0.0572
     36 H          -0.8648    4.9345   -6.2221 H       1  UNL1        0.0572
     37 H          -2.5865    4.0174   -4.7388 H       1  UNL1        0.0444
     38 H          -2.5865    2.5312   -5.6577 H       1  UNL1        0.0444
     39 H          -3.2456    5.1854   -6.7056 H       1  UNL1        0.1183
     40 H          -4.3420    3.9841   -6.3462 H       1  UNL1        0.1183
@<TRIPOS>BOND
     1     1     2    1
     2     2     3    1
     3     3     4    1
     4     4     5    1
     5     5     6   ar
     6     6     7   ar
     7     7     8    1
     8     8     9    1
     9     9    10    1
    10    10    11    1
    11    11    12    1
    12    12    13    1
    13    13    14    1
    14    14    15    1
    15    15    16    1
    16     7    17   ar
    17    17    18   ar
    18     5    18   ar
    19     1    19    1
    20     1    20    1
    21     1    21    1
    22     2    22    1
    23     2    23    1
    24     4    24    1
    25     4    25    1
    26     6    26    1
    27     8    27    1
    28     8    28    1
    29     9    29    1
    30     9    30    1
    31    11    31    1
    32    11    32    1
    33    12    33    1
    34    12    34    1
    35    14    35    1
    36    14    36    1
    37    15    37    1
    38    15    38    1
    39    16    39    1
    40    16    40    1
