@<TRIPOS>MOLECULE
*****
 40 40 0 0 0
SMALL
GASTEIGER

@<TRIPOS>ATOM
      1 C           0.9680   -0.0379    0.0868 C.3     1  UNL1       -0.0191
      2 C           2.4880   -0.0379    0.0868 C.ar    1  UNL1        0.0798
      3 C           3.2081   -0.2204   -1.1470 C.ar    1  UNL1        0.0484
      4 N           4.6010   -0.2204   -1.1470 N.ar    1  UNL1       -0.2493
      5 C           5.3360   -0.0341    0.1124 C.3     1  UNL1        0.0665
      6 C           4.3482    0.1349    1.2553 C.3     1  UNL1        0.0673
      7 O           5.0582    0.3149    2.4718 O.3     1  UNL1       -0.3757
      8 C           4.1355    0.4728    3.5395 C.3     1  UNL1        0.0711
      9 C           4.8955    0.6655    4.8417 C.3     1  UNL1        0.0711
     10 O           3.9727    0.8234    5.9093 O.3     1  UNL1       -0.3752
     11 C           4.6827    1.0034    7.1259 C.3     1  UNL1        0.0711
     12 C           3.6950    1.1724    8.2687 C.3     1  UNL1        0.0711
     13 O           4.4050    1.3524    9.4853 O.3     1  UNL1       -0.3763
     14 C           3.4822    1.5103   10.5529 C.3     1  UNL1        0.0600
     15 C           4.2422    1.7030   11.8551 C.3     1  UNL1        0.0166
     16 N           3.2869    1.8665   12.9604 N.3     1  UNL1       -0.3279
     17 N           5.2737   -0.3909   -2.2996 N.ar    1  UNL1       -0.0654
     18 N           3.1845    0.1386    1.2801 N.ar    1  UNL1       -0.1348
     19 H           0.6114   -0.1855   -0.9111 H       1  UNL1        0.0294
     20 H           0.6114    0.9002    0.4580 H       1  UNL1        0.0294
     21 H           0.6114   -0.8283    0.7137 H       1  UNL1        0.0294
     22 H           2.6921   -0.3512   -2.0311 H       1  UNL1        0.0845
     23 H           5.9511    0.8384    0.0406 H       1  UNL1        0.0532
     24 H           5.9511   -0.8901    0.2963 H       1  UNL1        0.0532
     25 H           3.7331   -0.7376    1.3270 H       1  UNL1        0.0578
     26 H           3.7331    0.9909    1.0713 H       1  UNL1        0.0578
     27 H           3.5203   -0.3997    3.6112 H       1  UNL1        0.0583
     28 H           3.5203    1.3288    3.3555 H       1  UNL1        0.0583
     29 H           5.5106    1.5380    4.7699 H       1  UNL1        0.0583
     30 H           5.5106   -0.1905    5.0256 H       1  UNL1        0.0583
     31 H           5.2979    1.8759    7.0541 H       1  UNL1        0.0583
     32 H           5.2979    0.1474    7.3098 H       1  UNL1        0.0583
     33 H           3.0798    0.2999    8.3405 H       1  UNL1        0.0583
     34 H           3.0798    2.0284    8.0848 H       1  UNL1        0.0583
     35 H           2.8670    0.6378   10.6247 H       1  UNL1        0.0572
     36 H           2.8670    2.3663   10.3690 H       1  UNL1        0.0572
     37 H           4.8574    2.5755   11.7834 H       1  UNL1        0.0444
     38 H           4.8574    0.8470   12.0391 H       1  UNL1        0.0444
     39 H           2.7005    2.6824   12.7851 H       1  UNL1        0.1183
     40 H           3.7969    1.9957   13.8343 H       1  UNL1        0.1183
@<TRIPOS>BOND
     1     1     2    1
     2     2     3   ar
     3     3     4   ar
     4     4     5    1
     5     5     6    1
     6     6     7    1
     7     7     8    1
     8     8     9    1
     9     9    10    1
    10    10    11    1
    11    11    12    1
    12    12    13    1
    13    13    14    1
    14    14    15    1
    15    15    16    1
    16     4    17   ar
    17    17    18   ar
    18     2    18   ar
    19     1    19    1
    20     1    20    1
    21     1    21    1
    22     3    22    1
    23     5    23    1
    24     5    24    1
    25     6    25    1
    26     6    26    1
    27     8    27    1
    28     8    28    1
    29     9    29    1
    30     9    30    1
    31    11    31    1
    32    11    32    1
    33    12    33    1
    34    12    34    1
    35    14    35    1
    36    14    36    1
    37    15    37    1
    38    15    38    1
    39    16    39    1
    40    16    40    1
