@<TRIPOS>MOLECULE
*****
 24 23 0 0 0
SMALL
GASTEIGER

@<TRIPOS>ATOM
      1 C           0.9331    0.0733   -0.0126 C.3     1  UNL1       -0.0653
      2 C           2.4531    0.0733   -0.0126 C.3     1  UNL1       -0.0559
      3 C           2.9598    1.1818   -0.9207 C.3     1  UNL1       -0.0533
      4 C           4.4798    1.1818   -0.9207 C.3     1  UNL1       -0.0526
      5 C           4.9864    2.2904   -1.8289 C.3     1  UNL1       -0.0448
      6 C           6.5064    2.2904   -1.8289 C.3     1  UNL1        0.0237
      7 C           7.0131    3.3990   -2.7371 C.2     1  UNL1        0.2105
      8 N           6.0578    4.2633   -3.4452 N.am    1  UNL1       -0.3293
      9 O           8.2626    3.5786   -2.8843 O.2     1  UNL1       -0.2760
     10 H           0.5765   -0.7071    0.6267 H       1  UNL1        0.0230
     11 H           0.5764   -0.0902   -1.0080 H       1  UNL1        0.0230
     12 H           0.5764    1.0171    0.3436 H       1  UNL1        0.0230
     13 H           2.8098   -0.8706   -0.3687 H       1  UNL1        0.0263
     14 H           2.8098    0.2367    0.9829 H       1  UNL1        0.0263
     15 H           2.6031    2.1257   -0.5646 H       1  UNL1        0.0265
     16 H           2.6031    1.0184   -1.9162 H       1  UNL1        0.0265
     17 H           4.8364    0.2380   -1.2769 H       1  UNL1        0.0265
     18 H           4.8364    1.3453    0.0747 H       1  UNL1        0.0265
     19 H           4.6298    3.2342   -1.4727 H       1  UNL1        0.0270
     20 H           4.6298    2.1269   -2.8244 H       1  UNL1        0.0270
     21 H           6.8631    1.3466   -2.1851 H       1  UNL1        0.0358
     22 H           6.8631    2.4539   -0.8334 H       1  UNL1        0.0358
     23 H           5.0899    4.1241   -3.3312 H       1  UNL1        0.1449
     24 H           6.3860    4.9813   -4.0334 H       1  UNL1        0.1449
@<TRIPOS>BOND
     1     1     2    1
     2     2     3    1
     3     3     4    1
     4     4     5    1
     5     5     6    1
     6     6     7    1
     7     7     8   am
     8     7     9    2
     9     1    10    1
    10     1    11    1
    11     1    12    1
    12     2    13    1
    13     2    14    1
    14     3    15    1
    15     3    16    1
    16     4    17    1
    17     4    18    1
    18     5    19    1
    19     5    20    1
    20     6    21    1
    21     6    22    1
    22     8    23    1
    23     8    24    1
