@<TRIPOS>MOLECULE
*****
 25 24 0 0 0
SMALL
GASTEIGER

@<TRIPOS>ATOM
      1 C           0.9047    0.0297   -0.0067 C.3     1  UNL1       -0.0653
      2 C           2.4247    0.0297   -0.0067 C.3     1  UNL1       -0.0559
      3 C           2.9314    1.3912   -0.4541 C.3     1  UNL1       -0.0533
      4 C           4.4514    1.3912   -0.4541 C.3     1  UNL1       -0.0531
      5 C           4.9581    2.7526   -0.9014 C.3     1  UNL1       -0.0527
      6 C           6.4781    2.7526   -0.9014 C.3     1  UNL1       -0.0466
      7 C           6.9847    4.1141   -1.3488 C.3     1  UNL1        0.0028
      8 C           8.5047    4.1141   -1.3488 C.2     1  UNL1        0.1203
      9 O           9.1402    5.1597   -1.6923 O.2     1  UNL1       -0.3010
     10 H           0.5481   -0.9287    0.3082 H       1  UNL1        0.0230
     11 H           0.5481    0.2362   -0.9942 H       1  UNL1        0.0230
     12 H           0.5481    0.7816    0.6658 H       1  UNL1        0.0230
     13 H           2.7814   -0.7222   -0.6793 H       1  UNL1        0.0263
     14 H           2.7814   -0.1768    0.9807 H       1  UNL1        0.0263
     15 H           2.5747    2.1431    0.2185 H       1  UNL1        0.0265
     16 H           2.5747    1.5976   -1.4415 H       1  UNL1        0.0265
     17 H           4.8081    0.6392   -1.1266 H       1  UNL1        0.0265
     18 H           4.8081    1.1847    0.5334 H       1  UNL1        0.0265
     19 H           4.6014    3.5045   -0.2289 H       1  UNL1        0.0265
     20 H           4.6014    2.9591   -1.8889 H       1  UNL1        0.0265
     21 H           6.8347    2.0007   -1.5740 H       1  UNL1        0.0269
     22 H           6.8347    2.5461    0.0860 H       1  UNL1        0.0269
     23 H           6.6281    4.8660   -0.6762 H       1  UNL1        0.0339
     24 H           6.6281    4.3206   -2.3362 H       1  UNL1        0.0339
     25 H           9.0207    3.2650   -1.0698 H       1  UNL1        0.1026
@<TRIPOS>BOND
     1     1     2    1
     2     2     3    1
     3     3     4    1
     4     4     5    1
     5     5     6    1
     6     6     7    1
     7     7     8    1
     8     8     9    2
     9     1    10    1
    10     1    11    1
    11     1    12    1
    12     2    13    1
    13     2    14    1
    14     3    15    1
    15     3    16    1
    16     4    17    1
    17     4    18    1
    18     5    19    1
    19     5    20    1
    20     6    21    1
    21     6    22    1
    22     7    23    1
    23     7    24    1
    24     8    25    1
