@<TRIPOS>MOLECULE
*****
 36 36 0 0 0
SMALL
GASTEIGER

@<TRIPOS>ATOM
      1 C           1.0746    0.0245   -0.0619 C.3     1  UNL1       -0.0653
      2 C           2.5946    0.0245   -0.0619 C.3     1  UNL1       -0.0559
      3 C           3.1013   -0.4975    1.2727 C.3     1  UNL1       -0.0533
      4 C           4.6213   -0.4975    1.2727 C.3     1  UNL1       -0.0526
      5 C           5.1279   -1.0195    2.6073 C.3     1  UNL1       -0.0448
      6 C           6.6479   -1.0195    2.6073 C.3     1  UNL1        0.0242
      7 C           7.1546   -1.5416    3.9419 C.2     1  UNL1        0.2156
      8 O           6.3287   -1.8934    4.8415 O.2     1  UNL1       -0.2756
      9 N           8.5998   -1.6394    4.1921 N.am    1  UNL1       -0.2991
     10 C           9.0898   -2.1443    5.4828 C.3     1  UNL1        0.0272
     11 C          10.6098   -2.1443    5.4828 C.3     1  UNL1        0.0118
     12 N          11.0998   -2.6491    6.7735 N.3     1  UNL1       -0.3130
     13 C          12.5698   -2.6491    6.7735 C.3     1  UNL1        0.0118
     14 C           9.5551   -1.2324    3.1515 C.3     1  UNL1        0.0272
     15 H           0.7180    0.3920   -1.0014 H       1  UNL1        0.0230
     16 H           0.7179    0.6544    0.7261 H       1  UNL1        0.0230
     17 H           0.7179   -0.9728    0.0896 H       1  UNL1        0.0230
     18 H           2.9513    1.0219   -0.2134 H       1  UNL1        0.0263
     19 H           2.9513   -0.6053   -0.8499 H       1  UNL1        0.0263
     20 H           2.7446   -1.4949    1.4242 H       1  UNL1        0.0265
     21 H           2.7446    0.1324    2.0607 H       1  UNL1        0.0265
     22 H           4.9779    0.4999    1.1212 H       1  UNL1        0.0265
     23 H           4.9779   -1.1274    0.4847 H       1  UNL1        0.0265
     24 H           4.7713   -2.0169    2.7588 H       1  UNL1        0.0270
     25 H           4.7713   -0.3896    3.3953 H       1  UNL1        0.0270
     26 H           7.0046   -0.0222    2.4558 H       1  UNL1        0.0358
     27 H           7.0046   -1.6494    1.8193 H       1  UNL1        0.0358
     28 H           8.7332   -3.1416    5.6343 H       1  UNL1        0.0477
     29 H           8.7332   -1.5144    6.2708 H       1  UNL1        0.0477
     30 H          10.9665   -1.1469    5.3313 H       1  UNL1        0.0439
     31 H          10.9665   -2.7742    4.6948 H       1  UNL1        0.0439
     32 H          10.7598   -3.5999    6.9179 H       1  UNL1        0.1220
     33 H          13.1246   -3.5618    6.7084 H       1  UNL1        0.0439
     34 H          13.3680   -2.2370    7.3548 H       1  UNL1        0.0439
     35 H           9.5699   -1.8211    2.2581 H       1  UNL1        0.0477
     36 H           9.5748   -0.2935    2.6387 H       1  UNL1        0.0477
@<TRIPOS>BOND
     1     1     2    1
     2     2     3    1
     3     3     4    1
     4     4     5    1
     5     5     6    1
     6     6     7    1
     7     7     8    2
     8     7     9   am
     9     9    10    1
    10    10    11    1
    11    11    12    1
    12    12    13    1
    13    13    14    1
    14     9    14    1
    15     1    15    1
    16     1    16    1
    17     1    17    1
    18     2    18    1
    19     2    19    1
    20     3    20    1
    21     3    21    1
    22     4    22    1
    23     4    23    1
    24     5    24    1
    25     5    25    1
    26     6    26    1
    27     6    27    1
    28    10    28    1
    29    10    29    1
    30    11    30    1
    31    11    31    1
    32    12    32    1
    33    13    33    1
    34    13    34    1
    35    14    35    1
    36    14    36    1
