@<TRIPOS>MOLECULE
*****
 73 75 0 0 0
SMALL
GASTEIGER

@<TRIPOS>ATOM
      1 C           0.9517   -0.0087   -0.0871 C.3     1  UNL1       -0.0652
      2 C           2.4717   -0.0087   -0.0871 C.3     1  UNL1       -0.0545
      3 C           2.9784   -0.8840    1.0476 C.3     1  UNL1       -0.0373
      4 C           4.4984   -0.8840    1.0476 C.3     1  UNL1        0.0165
      5 N           4.9884   -1.7305    2.1450 N.am    1  UNL1       -0.2811
      6 C           4.0331   -2.4129    3.0296 C.3     1  UNL1        0.0412
      7 C           2.6146   -2.0793    2.5972 C.ar    1  UNL1       -0.0301
      8 C           1.4945   -2.6322    3.3140 C.ar    1  UNL1       -0.0571
      9 C           0.1505   -2.3161    2.9042 C.ar    1  UNL1       -0.0615
     10 C          -0.9697   -2.8690    3.6210 C.ar    1  UNL1       -0.0617
     11 C          -2.3137   -2.5530    3.2112 C.ar    1  UNL1       -0.0615
     12 C           2.3908   -1.2104    1.4707 C.ar    1  UNL1       -0.0571
     13 C           6.4336   -1.8945    2.3576 C.2     1  UNL1        0.3067
     14 O           7.2595   -1.3045    1.5928 O.2     1  UNL1       -0.2523
     15 N           6.9236   -2.7410    3.4550 N.am    1  UNL1       -0.2693
     16 C           8.3689   -2.9051    3.6677 C.ar    1  UNL1        0.0350
     17 C           8.8489   -3.7344    4.7429 C.ar    1  UNL1       -0.0370
     18 C          10.2649   -3.8952    4.9512 C.ar    1  UNL1       -0.0182
     19 C          10.7450   -4.7245    6.0264 C.ar    1  UNL1        0.1206
     20 O           9.8222   -5.3837    6.8810 O.3     1  UNL1       -0.4920
     21 C           8.4261   -5.2252    6.6755 C.3     1  UNL1        0.0896
     22 C           7.6661   -6.0292    7.7178 C.3     1  UNL1       -0.0186
     23 C           6.1717   -5.8596    7.4979 C.3     1  UNL1       -0.0499
     24 C           5.4117   -6.6636    8.5402 C.3     1  UNL1       -0.0513
     25 C           3.9173   -6.4939    8.3203 C.3     1  UNL1       -0.0333
     26 C           3.1573   -7.2979    9.3626 C.3     1  UNL1        0.0432
     27 N           1.7120   -7.1339    9.1499 N.ar    1  UNL1       -0.2514
     28 C           0.8069   -7.7805    9.9881 C.ar    1  UNL1        0.0499
     29 C          -0.6090   -7.6197    9.7797 C.ar    1  UNL1        0.0963
     30 C          -1.1157   -6.7445    8.6450 C.3     1  UNL1        0.0393
     31 N           0.0277   -6.1801    7.9134 N.3     1  UNL1       -0.3248
     32 N          -1.5141   -8.2663   10.6180 N.ar    1  UNL1       -0.1332
     33 N           1.2636   -6.3591    8.1455 N.ar    1  UNL1       -0.0654
     34 C          12.1609   -4.8852    6.2348 C.ar    1  UNL1       -0.0182
     35 C           9.3048   -2.2365    2.8010 C.ar    1  UNL1       -0.0370
     36 H           0.5951    0.6074   -0.8859 H       1  UNL1        0.0230
     37 H           0.5951    0.3750    0.8458 H       1  UNL1        0.0230
     38 H           0.5951   -1.0085   -0.2214 H       1  UNL1        0.0230
     39 H           2.8284    0.9911    0.0471 H       1  UNL1        0.0263
     40 H           2.8284   -0.3924   -1.0201 H       1  UNL1        0.0263
     41 H           2.6217   -1.8838    0.9134 H       1  UNL1        0.0280
     42 H           2.6217   -0.5003    1.9806 H       1  UNL1        0.0280
     43 H           4.8551    0.1158    1.1818 H       1  UNL1        0.0465
     44 H           4.8551   -1.2677    0.1146 H       1  UNL1        0.0465
     45 H           4.1847   -2.0869    4.0374 H       1  UNL1        0.0514
     46 H           4.1847   -3.4704    2.9702 H       1  UNL1        0.0514
     47 H           1.6549   -3.2549    4.1212 H       1  UNL1        0.0621
     48 H          -0.0099   -1.6935    2.0970 H       1  UNL1        0.0618
     49 H          -0.8093   -3.4917    4.4282 H       1  UNL1        0.0618
     50 H          -3.3451   -2.5749    3.2396 H       1  UNL1        0.0618
     51 H           2.8754   -0.6539    0.7493 H       1  UNL1        0.0621
     52 H           6.2839   -3.1981    4.0475 H       1  UNL1        0.1564
     53 H           8.1783   -4.2135    5.3640 H       1  UNL1        0.0637
     54 H          10.9355   -3.4161    4.3302 H       1  UNL1        0.0655
     55 H           8.1676   -5.5743    5.6977 H       1  UNL1        0.0696
     56 H           8.1676   -4.1908    6.7649 H       1  UNL1        0.0696
     57 H           7.9246   -5.6802    8.6957 H       1  UNL1        0.0298
     58 H           7.9246   -7.0637    7.6285 H       1  UNL1        0.0298
     59 H           5.9132   -6.2087    6.5200 H       1  UNL1        0.0266
     60 H           5.9132   -4.8251    7.5872 H       1  UNL1        0.0266
     61 H           5.6702   -6.3145    9.5181 H       1  UNL1        0.0266
     62 H           5.6702   -7.6980    8.4509 H       1  UNL1        0.0266
     63 H           3.6588   -6.8430    7.3424 H       1  UNL1        0.0283
     64 H           3.6588   -5.4595    8.4096 H       1  UNL1        0.0283
     65 H           3.4158   -6.9489   10.3404 H       1  UNL1        0.0509
     66 H           3.4158   -8.3324    9.2732 H       1  UNL1        0.0509
     67 H           1.1509   -8.3747   10.7585 H       1  UNL1        0.0845
     68 H          -1.7101   -5.9500    9.0455 H       1  UNL1        0.0488
     69 H          -1.7101   -7.3335    7.9783 H       1  UNL1        0.0488
     70 H           0.5943   -5.6186    8.5490 H       1  UNL1        0.1186
     71 H          -0.3123   -5.5928    7.1520 H       1  UNL1        0.1186
     72 H          13.0207   -5.2339    6.6867 H       1  UNL1        0.0655
     73 H           9.3692   -1.6074    1.9854 H       1  UNL1        0.0637
@<TRIPOS>BOND
     1     1     2    1
     2     2     3    1
     3     3     4    1
     4     4     5    1
     5     5     6    1
     6     6     7    1
     7     7     8   ar
     8     8     9   ar
     9     9    10   ar
    10    10    11   ar
    11    11    12   ar
    12     7    12   ar
    13     5    13   am
    14    13    14    2
    15    13    15   am
    16    15    16    1
    17    16    17   ar
    18    17    18   ar
    19    18    19   ar
    20    19    20    1
    21    20    21    1
    22    21    22    1
    23    22    23    1
    24    23    24    1
    25    24    25    1
    26    25    26    1
    27    26    27    1
    28    27    28   ar
    29    28    29   ar
    30    29    30    1
    31    30    31    1
    32    29    32   ar
    33    32    33   ar
    34    27    33   ar
    35    19    34   ar
    36    34    35   ar
    37    16    35   ar
    38     1    36    1
    39     1    37    1
    40     1    38    1
    41     2    39    1
    42     2    40    1
    43     3    41    1
    44     3    42    1
    45     4    43    1
    46     4    44    1
    47     6    45    1
    48     6    46    1
    49     8    47    1
    50     9    48    1
    51    10    49    1
    52    11    50    1
    53    12    51    1
    54    15    52    1
    55    17    53    1
    56    18    54    1
    57    21    55    1
    58    21    56    1
    59    22    57    1
    60    22    58    1
    61    23    59    1
    62    23    60    1
    63    24    61    1
    64    24    62    1
    65    25    63    1
    66    25    64    1
    67    26    65    1
    68    26    66    1
    69    28    67    1
    70    30    68    1
    71    30    69    1
    72    31    70    1
    73    31    71    1
    74    34    72    1
    75    35    73    1
