@<TRIPOS>MOLECULE
*****
 16 15 0 0 0
SMALL
GASTEIGER

@<TRIPOS>ATOM
      1 C           1.0384    0.0487   -0.0784 C.3     1  UNL1        0.0364
      2 O           2.4584    0.0487   -0.0784 O.3     1  UNL1       -0.3829
      3 C           2.9318   -0.5112   -1.2946 C.3     1  UNL1        0.0494
      4 C           4.4518   -0.5112   -1.2946 C.3     1  UNL1       -0.0062
      5 C           4.9584   -1.1104   -2.5963 C.3     1  UNL1        0.0463
      6 O           6.3784   -1.1104   -2.5963 O.3     1  UNL1       -0.3949
      7 H           0.6818    0.4705    0.8379 H       1  UNL1        0.0523
      8 H           0.6818   -0.9558   -0.1713 H       1  UNL1        0.0523
      9 H           0.6818    0.6313   -0.9020 H       1  UNL1        0.0523
     10 H           2.5751    0.0715   -2.1181 H       1  UNL1        0.0560
     11 H           2.5751   -1.5157   -1.3874 H       1  UNL1        0.0560
     12 H           4.8084   -1.0938   -0.4710 H       1  UNL1        0.0309
     13 H           4.8084    0.4934   -1.2017 H       1  UNL1        0.0309
     14 H           4.6017   -0.5278   -3.4198 H       1  UNL1        0.0558
     15 H           4.6017   -2.1150   -2.6891 H       1  UNL1        0.0558
     16 H           6.7017   -0.1998   -2.5121 H       1  UNL1        0.2094
@<TRIPOS>BOND
     1     1     2    1
     2     2     3    1
     3     3     4    1
     4     4     5    1
     5     5     6    1
     6     1     7    1
     7     1     8    1
     8     1     9    1
     9     3    10    1
    10     3    11    1
    11     4    12    1
    12     4    13    1
    13     5    14    1
    14     5    15    1
    15     6    16    1
