@<TRIPOS>MOLECULE
*****
 43 43 0 0 0
SMALL
GASTEIGER

@<TRIPOS>ATOM
      1 N           1.0170   -0.0769    0.0616 N.3     1  UNL1       -0.3279
      2 C           2.4870   -0.0769    0.0616 C.3     1  UNL1        0.0166
      3 C           2.9937   -0.6754   -1.2404 C.3     1  UNL1        0.0600
      4 O           4.4137   -0.6754   -1.2404 O.3     1  UNL1       -0.3763
      5 C           4.8870   -1.2346   -2.4569 C.3     1  UNL1        0.0711
      6 C           6.4070   -1.2346   -2.4569 C.3     1  UNL1        0.0711
      7 O           6.8804   -1.7938   -3.6733 O.3     1  UNL1       -0.3757
      8 C           8.3004   -1.7938   -3.6733 C.3     1  UNL1        0.0673
      9 C           8.8070   -2.3923   -4.9754 C.3     1  UNL1        0.0665
     10 N          10.2770   -2.3923   -4.9754 N.ar    1  UNL1       -0.2492
     11 C          10.9734   -2.8961   -6.0714 C.ar    1  UNL1        0.0487
     12 C          12.4136   -2.8961   -6.0714 C.ar    1  UNL1        0.0828
     13 C          13.1736   -2.3463   -4.8753 C.3     1  UNL1       -0.0071
     14 C          12.1859   -1.8638   -3.8256 C.3     1  UNL1       -0.0455
     15 C          12.9459   -1.3140   -2.6296 C.3     1  UNL1       -0.0294
     16 C          11.9581   -0.8314   -1.5798 C.3     1  UNL1        0.0442
     17 O          12.6681   -0.3178   -0.4625 O.3     1  UNL1       -0.3950
     18 N          13.1100   -3.3999   -7.1673 N.ar    1  UNL1       -0.1345
     19 N          10.9497   -1.9056   -3.9167 N.ar    1  UNL1       -0.0654
     20 H           0.6770    0.3248    0.9354 H       1  UNL1        0.1183
     21 H           0.6770   -1.0344   -0.0274 H       1  UNL1        0.1183
     22 H           2.8437   -0.6600    0.8848 H       1  UNL1        0.0444
     23 H           2.8437    0.9276    0.1551 H       1  UNL1        0.0444
     24 H           2.6370   -0.0923   -2.0636 H       1  UNL1        0.0572
     25 H           2.6370   -1.6799   -1.3339 H       1  UNL1        0.0572
     26 H           4.5304   -0.6515   -3.2801 H       1  UNL1        0.0583
     27 H           4.5304   -2.2391   -2.5503 H       1  UNL1        0.0583
     28 H           6.7637   -1.8177   -1.6337 H       1  UNL1        0.0583
     29 H           6.7637   -0.2301   -2.3635 H       1  UNL1        0.0583
     30 H           8.6570   -2.3769   -2.8501 H       1  UNL1        0.0578
     31 H           8.6570   -0.7893   -3.5799 H       1  UNL1        0.0578
     32 H           8.4503   -1.8092   -5.7986 H       1  UNL1        0.0532
     33 H           8.4503   -3.3968   -5.0688 H       1  UNL1        0.0532
     34 H          10.4574   -3.2694   -6.8834 H       1  UNL1        0.0845
     35 H          13.7888   -1.5288   -5.1887 H       1  UNL1        0.0329
     36 H          13.7888   -3.1164   -4.4589 H       1  UNL1        0.0329
     37 H          11.5707   -2.6812   -3.5122 H       1  UNL1        0.0270
     38 H          11.5707   -1.0936   -4.2420 H       1  UNL1        0.0270
     39 H          13.5610   -0.4965   -2.9429 H       1  UNL1        0.0287
     40 H          13.5610   -2.0841   -2.2132 H       1  UNL1        0.0287
     41 H          11.3430   -1.6489   -1.2664 H       1  UNL1        0.0557
     42 H          11.3430   -0.0613   -1.9962 H       1  UNL1        0.0557
     43 H          13.2258   -1.0160   -0.0850 H       1  UNL1        0.2094
@<TRIPOS>BOND
     1     1     2    1
     2     2     3    1
     3     3     4    1
     4     4     5    1
     5     5     6    1
     6     6     7    1
     7     7     8    1
     8     8     9    1
     9     9    10    1
    10    10    11   ar
    11    11    12   ar
    12    12    13    1
    13    13    14    1
    14    14    15    1
    15    15    16    1
    16    16    17    1
    17    12    18   ar
    18    18    19   ar
    19    10    19   ar
    20     1    20    1
    21     1    21    1
    22     2    22    1
    23     2    23    1
    24     3    24    1
    25     3    25    1
    26     5    26    1
    27     5    27    1
    28     6    28    1
    29     6    29    1
    30     8    30    1
    31     8    31    1
    32     9    32    1
    33     9    33    1
    34    11    34    1
    35    13    35    1
    36    13    36    1
    37    14    37    1
    38    14    38    1
    39    15    39    1
    40    15    40    1
    41    16    41    1
    42    16    42    1
    43    17    43    1
