@<TRIPOS>MOLECULE
*****
 38 37 0 0 0
SMALL
GASTEIGER

@<TRIPOS>ATOM
      1 C           0.9451   -0.0793    0.0264 C.3     1  UNL1       -0.0416
      2 C           2.4651   -0.0793    0.0264 C.3     1  UNL1        0.0449
      3 O           2.9384    0.3283    1.3016 O.3     1  UNL1       -0.3778
      4 C           4.3584    0.3283    1.3016 C.3     1  UNL1        0.0710
      5 C           4.8651    0.7645    2.6667 C.3     1  UNL1        0.0711
      6 O           6.2851    0.7645    2.6667 O.3     1  UNL1       -0.3752
      7 C           6.7584    1.1721    3.9419 C.3     1  UNL1        0.0711
      8 C           8.2784    1.1721    3.9419 C.3     1  UNL1        0.0711
      9 O           8.7517    1.5797    5.2171 O.3     1  UNL1       -0.3760
     10 C          10.1717    1.5797    5.2171 C.3     1  UNL1        0.0633
     11 C          10.6784    2.0160    6.5822 C.3     1  UNL1        0.0351
     12 N          12.1484    2.0160    6.5822 N.am    1  UNL1       -0.3121
     13 C          12.8834    2.4035    7.7948 C.2     1  UNL1        0.2268
     14 O          12.2480    2.7386    8.8432 O.2     1  UNL1       -0.2744
     15 C          14.4034    2.4035    7.7948 C.3     1  UNL1        0.0707
     16 N          14.8934    2.8254    9.1150 N.3     1  UNL1       -0.3225
     17 H           0.5884   -0.3864   -0.9346 H       1  UNL1        0.0252
     18 H           0.5884    0.9064    0.2409 H       1  UNL1        0.0252
     19 H           0.5884   -0.7579    0.7728 H       1  UNL1        0.0252
     20 H           2.8218    0.5993   -0.7201 H       1  UNL1        0.0557
     21 H           2.8218   -1.0650   -0.1881 H       1  UNL1        0.0557
     22 H           4.7151    1.0069    0.5552 H       1  UNL1        0.0583
     23 H           4.7151   -0.6575    1.0871 H       1  UNL1        0.0583
     24 H           4.5084    0.0859    3.4131 H       1  UNL1        0.0583
     25 H           4.5084    1.7503    2.8812 H       1  UNL1        0.0583
     26 H           6.4017    0.4935    4.6883 H       1  UNL1        0.0583
     27 H           6.4017    2.1578    4.1564 H       1  UNL1        0.0583
     28 H           8.6351    1.8507    3.1955 H       1  UNL1        0.0583
     29 H           8.6351    0.1864    3.7274 H       1  UNL1        0.0583
     30 H          10.5284    2.2583    4.4707 H       1  UNL1        0.0575
     31 H          10.5284    0.5939    5.0027 H       1  UNL1        0.0575
     32 H          10.3217    1.3373    7.3286 H       1  UNL1        0.0484
     33 H          10.3217    3.0017    6.7967 H       1  UNL1        0.0484
     34 H          12.6407    1.7564    5.7701 H       1  UNL1        0.1488
     35 H          14.7601    3.0821    7.0484 H       1  UNL1        0.0518
     36 H          14.7601    1.4178    7.5803 H       1  UNL1        0.0518
     37 H          14.5534    3.7651    9.3194 H       1  UNL1        0.1186
     38 H          15.9134    2.8254    9.1150 H       1  UNL1        0.1186
@<TRIPOS>BOND
     1     1     2    1
     2     2     3    1
     3     3     4    1
     4     4     5    1
     5     5     6    1
     6     6     7    1
     7     7     8    1
     8     8     9    1
     9     9    10    1
    10    10    11    1
    11    11    12    1
    12    12    13   am
    13    13    14    2
    14    13    15    1
    15    15    16    1
    16     1    17    1
    17     1    18    1
    18     1    19    1
    19     2    20    1
    20     2    21    1
    21     4    22    1
    22     4    23    1
    23     5    24    1
    24     5    25    1
    25     7    26    1
    26     7    27    1
    27     8    28    1
    28     8    29    1
    29    10    30    1
    30    10    31    1
    31    11    32    1
    32    11    33    1
    33    12    34    1
    34    15    35    1
    35    15    36    1
    36    16    37    1
    37    16    38    1
