@<TRIPOS>MOLECULE
*****
 16 15 0 0 0
SMALL
GASTEIGER

@<TRIPOS>ATOM
      1 C           0.9180   -0.0512   -0.0256 C.3     1  UNL1        0.0364
      2 O           2.3380   -0.0512   -0.0256 O.3     1  UNL1       -0.3829
      3 C           2.8114    0.8850    0.9314 C.3     1  UNL1        0.0494
      4 C           4.3314    0.8850    0.9314 C.3     1  UNL1       -0.0062
      5 C           4.8380    1.8871    1.9558 C.3     1  UNL1        0.0463
      6 O           6.2580    1.8871    1.9558 O.3     1  UNL1       -0.3949
      7 H           0.5614   -0.7567   -0.7468 H       1  UNL1        0.0523
      8 H           0.5614    0.9260   -0.2760 H       1  UNL1        0.0523
      9 H           0.5614   -0.3230    0.9459 H       1  UNL1        0.0523
     10 H           2.4547    0.6132    1.9029 H       1  UNL1        0.0560
     11 H           2.4547    1.8622    0.6810 H       1  UNL1        0.0560
     12 H           4.6880    1.1568   -0.0401 H       1  UNL1        0.0309
     13 H           4.6880   -0.0922    1.1817 H       1  UNL1        0.0309
     14 H           4.4813    1.6154    2.9273 H       1  UNL1        0.0558
     15 H           4.4813    2.8644    1.7054 H       1  UNL1        0.0558
     16 H           6.5813    1.0012    2.1827 H       1  UNL1        0.2094
@<TRIPOS>BOND
     1     1     2    1
     2     2     3    1
     3     3     4    1
     4     4     5    1
     5     5     6    1
     6     1     7    1
     7     1     8    1
     8     1     9    1
     9     3    10    1
    10     3    11    1
    11     4    12    1
    12     4    13    1
    13     5    14    1
    14     5    15    1
    15     6    16    1
