@<TRIPOS>MOLECULE
*****
 33 32 0 0 0
SMALL
GASTEIGER

@<TRIPOS>ATOM
      1 C           1.0775   -0.0136   -0.0617 C.3     1  UNL1       -0.0570
      2 C           2.5975   -0.0136   -0.0617 C.3     1  UNL1        0.0211
      3 C           3.1042    1.4034   -0.2756 C.2     1  UNL1        0.2128
      4 O           2.2783    2.3585   -0.4197 O.2     1  UNL1       -0.2758
      5 N           4.5494    1.6690   -0.3157 N.am    1  UNL1       -0.3131
      6 C           5.0394    3.0394   -0.5225 C.3     1  UNL1        0.0350
      7 C           6.5594    3.0394   -0.5225 C.3     1  UNL1        0.0632
      8 O           7.0328    4.3632   -0.7223 O.3     1  UNL1       -0.3760
      9 C           8.4528    4.3632   -0.7223 C.3     1  UNL1        0.0711
     10 C           8.9594    5.7802   -0.9362 C.3     1  UNL1        0.0711
     11 O          10.3794    5.7802   -0.9362 O.3     1  UNL1       -0.3752
     12 C          10.8527    7.1040   -1.1360 C.3     1  UNL1        0.0708
     13 C          12.3727    7.1040   -1.1360 C.3     1  UNL1        0.0676
     14 O          12.8461    8.4278   -1.3358 O.3     1  UNL1       -0.3927
     15 H           0.7209   -1.0111    0.0889 H       1  UNL1        0.0234
     16 H           0.7209    0.3547   -1.0008 H       1  UNL1        0.0234
     17 H           0.7208    0.6155    0.7269 H       1  UNL1        0.0234
     18 H           2.9542   -0.6428   -0.8503 H       1  UNL1        0.0356
     19 H           2.9542   -0.3820    0.8775 H       1  UNL1        0.0356
     20 H           5.1892    0.9291   -0.2040 H       1  UNL1        0.1488
     21 H           4.6828    3.6685    0.2661 H       1  UNL1        0.0484
     22 H           4.6828    3.4078   -1.4616 H       1  UNL1        0.0484
     23 H           6.9161    2.4103   -1.3111 H       1  UNL1        0.0575
     24 H           6.9161    2.6710    0.4166 H       1  UNL1        0.0575
     25 H           8.8094    3.7341   -1.5109 H       1  UNL1        0.0583
     26 H           8.8094    3.9948    0.2168 H       1  UNL1        0.0583
     27 H           8.6027    6.4094   -0.1476 H       1  UNL1        0.0583
     28 H           8.6027    6.1486   -1.8753 H       1  UNL1        0.0583
     29 H          10.4961    7.7332   -0.3474 H       1  UNL1        0.0583
     30 H          10.4961    7.4724   -2.0752 H       1  UNL1        0.0583
     31 H          12.7294    6.4749   -1.9246 H       1  UNL1        0.0580
     32 H          12.7294    6.7357   -0.1969 H       1  UNL1        0.0580
     33 H          12.5227    8.7617   -2.1872 H       1  UNL1        0.2095
@<TRIPOS>BOND
     1     1     2    1
     2     2     3    1
     3     3     4    2
     4     3     5   am
     5     5     6    1
     6     6     7    1
     7     7     8    1
     8     8     9    1
     9     9    10    1
    10    10    11    1
    11    11    12    1
    12    12    13    1
    13    13    14    1
    14     1    15    1
    15     1    16    1
    16     1    17    1
    17     2    18    1
    18     2    19    1
    19     5    20    1
    20     6    21    1
    21     6    22    1
    22     7    23    1
    23     7    24    1
    24     9    25    1
    25     9    26    1
    26    10    27    1
    27    10    28    1
    28    12    29    1
    29    12    30    1
    30    13    31    1
    31    13    32    1
    32    14    33    1
