@<TRIPOS>MOLECULE
*****
 19 18 0 0 0
SMALL
GASTEIGER

@<TRIPOS>ATOM
      1 C           1.0646   -0.0311   -0.0698 C.3     1  UNL1       -0.0416
      2 C           2.5846   -0.0311   -0.0698 C.3     1  UNL1        0.0449
      3 O           3.0579   -0.6477   -1.2581 O.3     1  UNL1       -0.3778
      4 C           4.4779   -0.6477   -1.2581 C.3     1  UNL1        0.0710
      5 C           4.9846   -1.3078   -2.5301 C.3     1  UNL1        0.0706
      6 O           6.4046   -1.3078   -2.5301 O.3     1  UNL1       -0.3807
      7 C           6.8779   -1.9245   -3.7184 C.3     1  UNL1        0.0365
      8 H           0.7079    0.4336    0.8257 H       1  UNL1        0.0252
      9 H           0.7079   -1.0389   -0.1150 H       1  UNL1        0.0252
     10 H           0.7079    0.5120   -0.9199 H       1  UNL1        0.0252
     11 H           2.9412   -0.5742    0.7804 H       1  UNL1        0.0557
     12 H           2.9412    0.9767   -0.0245 H       1  UNL1        0.0557
     13 H           4.8346   -1.1909   -0.4079 H       1  UNL1        0.0583
     14 H           4.8346    0.3600   -1.2128 H       1  UNL1        0.0583
     15 H           4.6279   -0.7647   -3.3802 H       1  UNL1        0.0582
     16 H           4.6279   -2.3156   -2.5754 H       1  UNL1        0.0582
     17 H           7.9479   -1.9245   -3.7184 H       1  UNL1        0.0524
     18 H           6.5212   -1.3814   -4.5685 H       1  UNL1        0.0524
     19 H           6.5212   -2.9323   -3.7637 H       1  UNL1        0.0524
@<TRIPOS>BOND
     1     1     2    1
     2     2     3    1
     3     3     4    1
     4     4     5    1
     5     5     6    1
     6     6     7    1
     7     1     8    1
     8     1     9    1
     9     1    10    1
    10     2    11    1
    11     2    12    1
    12     4    13    1
    13     4    14    1
    14     5    15    1
    15     5    16    1
    16     7    17    1
    17     7    18    1
    18     7    19    1
