@<TRIPOS>MOLECULE
*****
 15 14 0 0 0
SMALL
GASTEIGER

@<TRIPOS>ATOM
      1 C           1.0940    0.0304    0.0153 C.3     1  UNL1       -0.0495
      2 C           2.6140    0.0304    0.0153 C.3     1  UNL1        0.0087
      3 N           3.1040    1.4118   -0.0976 N.am    1  UNL1       -0.3158
      4 C           4.5493    1.6795   -0.1195 C.2     1  UNL1        0.2099
      5 C           5.5370    0.5280   -0.0254 C.3     1  UNL1        0.0121
      6 O           4.9729    2.8737   -0.2172 O.2     1  UNL1       -0.2761
      7 H           0.7374   -0.9750    0.0975 H       1  UNL1        0.0245
      8 H           0.7373    0.4620   -0.8966 H       1  UNL1        0.0245
      9 H           0.7373    0.6044    0.8449 H       1  UNL1        0.0245
     10 H           2.9707   -0.5435   -0.8144 H       1  UNL1        0.0459
     11 H           2.9707   -0.4011    0.9271 H       1  UNL1        0.0459
     12 H           2.4643    2.1576   -0.1586 H       1  UNL1        0.1487
     13 H           5.0020   -0.3955    0.0501 H       1  UNL1        0.0322
     14 H           6.1522    0.6557    0.8407 H       1  UNL1        0.0322
     15 H           6.1522    0.5133   -0.9007 H       1  UNL1        0.0322
@<TRIPOS>BOND
     1     1     2    1
     2     2     3    1
     3     3     4   am
     4     4     5    1
     5     4     6    2
     6     1     7    1
     7     1     8    1
     8     1     9    1
     9     2    10    1
    10     2    11    1
    11     3    12    1
    12     5    13    1
    13     5    14    1
    14     5    15    1
