@<TRIPOS>MOLECULE
*****
 13 12 0 0 0
SMALL
GASTEIGER

@<TRIPOS>ATOM
      1 C           0.9691    0.0529    0.0791 C.3     1  UNL1        0.0365
      2 O           2.3891    0.0529    0.0791 O.3     1  UNL1       -0.3807
      3 C           2.8624    0.8425    1.1602 C.3     1  UNL1        0.0704
      4 C           4.3824    0.8425    1.1602 C.3     1  UNL1        0.0675
      5 O           4.8558    1.6321    2.2414 O.3     1  UNL1       -0.3927
      6 H           0.6124   -0.5421   -0.7356 H       1  UNL1        0.0524
      7 H           0.6124    1.0559   -0.0289 H       1  UNL1        0.0524
      8 H           0.6124   -0.3552    1.0017 H       1  UNL1        0.0524
      9 H           2.5058    0.4344    2.0828 H       1  UNL1        0.0582
     10 H           2.5058    1.8455    1.0523 H       1  UNL1        0.0582
     11 H           4.7391    1.2505    0.2376 H       1  UNL1        0.0580
     12 H           4.7391   -0.1605    1.2681 H       1  UNL1        0.0580
     13 H           4.5324    2.5413    2.1435 H       1  UNL1        0.2095
@<TRIPOS>BOND
     1     1     2    1
     2     2     3    1
     3     3     4    1
     4     4     5    1
     5     1     6    1
     6     1     7    1
     7     1     8    1
     8     3     9    1
     9     3    10    1
    10     4    11    1
    11     4    12    1
    12     5    13    1
