@<TRIPOS>MOLECULE
*****
 21 21 0 0 0
SMALL
GASTEIGER

@<TRIPOS>ATOM
      1 C           0.9358    0.0091   -0.0761 C.3     1  UNL1       -0.0597
      2 C           2.4558    0.0091   -0.0761 C.3     1  UNL1       -0.0100
      3 C           2.9625   -0.0256   -1.5088 C.ar    1  UNL1        0.0826
      4 C           4.3784   -0.0320   -1.7719 C.ar    1  UNL1        0.0487
      5 N           4.8427   -0.0639   -3.0847 N.ar    1  UNL1       -0.2493
      6 C           3.8874   -0.0910   -4.2016 C.3     1  UNL1        0.0663
      7 C           2.4689   -0.0777   -3.6557 C.3     1  UNL1        0.0638
      8 O           1.5462   -0.1039   -4.7346 O.3     1  UNL1       -0.3932
      9 N           6.1655   -0.0698   -3.3304 N.ar    1  UNL1       -0.0654
     10 N           2.0574   -0.0513   -2.5671 N.ar    1  UNL1       -0.1345
     11 H           0.5791    0.0336    0.9324 H       1  UNL1        0.0233
     12 H           0.5791   -0.8765   -0.5592 H       1  UNL1        0.0233
     13 H           0.5791    0.8703   -0.6016 H       1  UNL1        0.0233
     14 H           2.8125   -0.8520    0.4493 H       1  UNL1        0.0327
     15 H           2.8125    0.8947    0.4069 H       1  UNL1        0.0327
     16 H           5.0490   -0.0130   -0.9877 H       1  UNL1        0.0845
     17 H           4.0390   -0.9789   -4.7792 H       1  UNL1        0.0532
     18 H           4.0390    0.7679   -4.8215 H       1  UNL1        0.0532
     19 H           2.3173    0.8102   -3.0781 H       1  UNL1        0.0575
     20 H           2.3173   -0.9366   -3.0358 H       1  UNL1        0.0575
     21 H           1.6836    0.6747   -5.2966 H       1  UNL1        0.2095
@<TRIPOS>BOND
     1     1     2    1
     2     2     3    1
     3     3     4   ar
     4     4     5   ar
     5     5     6    1
     6     6     7    1
     7     7     8    1
     8     5     9   ar
     9     9    10   ar
    10     3    10   ar
    11     1    11    1
    12     1    12    1
    13     1    13    1
    14     2    14    1
    15     2    15    1
    16     4    16    1
    17     6    17    1
    18     6    18    1
    19     7    19    1
    20     7    20    1
    21     8    21    1
