@<TRIPOS>MOLECULE
*****
 46 46 0 0 0
SMALL
GASTEIGER

@<TRIPOS>ATOM
      1 C           1.0871    0.0489    0.0049 C.3     1  UNL1       -0.0632
      2 C           2.6071    0.0489    0.0049 C.3     1  UNL1       -0.0323
      3 C           3.1137    0.2108    1.4288 C.3     1  UNL1        0.0474
      4 O           4.5337    0.2108    1.4288 O.3     1  UNL1       -0.3798
      5 C           5.0071    0.3621    2.7590 C.3     1  UNL1        0.0477
      6 C           6.5271    0.3621    2.7590 C.3     1  UNL1       -0.0295
      7 C           7.0337    0.5240    4.1829 C.3     1  UNL1       -0.0509
      8 C           8.5537    0.5240    4.1829 C.3     1  UNL1       -0.0513
      9 C           9.0604    0.6860    5.6068 C.3     1  UNL1       -0.0333
     10 C          10.5804    0.6860    5.6068 C.3     1  UNL1        0.0432
     11 N          11.0704    0.8426    6.9838 N.ar    1  UNL1       -0.2515
     12 C          12.4398    0.8713    7.2367 C.ar    1  UNL1        0.0486
     13 C          12.9198    1.0247    8.5858 C.ar    1  UNL1        0.0829
     14 C          11.9321    1.1553    9.7338 C.3     1  UNL1       -0.0051
     15 C          10.5136    1.0936    9.1911 C.3     1  UNL1       -0.0242
     16 C           9.5258    1.2241   10.3390 C.3     1  UNL1        0.0446
     17 O           8.2007    1.1665    9.8321 O.3     1  UNL1       -0.3950
     18 N          14.2892    1.0535    8.8387 N.ar    1  UNL1       -0.1345
     19 N          10.1961    0.9581    7.9999 N.ar    1  UNL1       -0.0655
     20 H           0.7304   -0.0651   -0.9975 H       1  UNL1        0.0230
     21 H           0.7304    0.9740    0.4073 H       1  UNL1        0.0230
     22 H           0.7304   -0.7621    0.6048 H       1  UNL1        0.0230
     23 H           2.9637    0.8600   -0.5950 H       1  UNL1        0.0285
     24 H           2.9638   -0.8761   -0.3976 H       1  UNL1        0.0285
     25 H           2.7571   -0.6002    2.0286 H       1  UNL1        0.0560
     26 H           2.7571    1.1359    1.8312 H       1  UNL1        0.0560
     27 H           4.6504   -0.4489    3.3589 H       1  UNL1        0.0560
     28 H           4.6504    1.2872    3.1614 H       1  UNL1        0.0560
     29 H           6.8837    1.1732    2.1591 H       1  UNL1        0.0287
     30 H           6.8837   -0.5629    2.3565 H       1  UNL1        0.0287
     31 H           6.6771   -0.2870    4.7828 H       1  UNL1        0.0266
     32 H           6.6771    1.4491    4.5853 H       1  UNL1        0.0266
     33 H           8.9104    1.3351    3.5830 H       1  UNL1        0.0266
     34 H           8.9104   -0.4010    3.7804 H       1  UNL1        0.0266
     35 H           8.7037   -0.1251    6.2067 H       1  UNL1        0.0283
     36 H           8.7037    1.6110    6.0092 H       1  UNL1        0.0283
     37 H          10.9371    1.4970    5.0069 H       1  UNL1        0.0509
     38 H          10.9371   -0.2391    5.2043 H       1  UNL1        0.0509
     39 H          13.1104    0.7827    6.4573 H       1  UNL1        0.0845
     40 H          12.0837    2.0910   10.2301 H       1  UNL1        0.0330
     41 H          12.0837    0.3549   10.4275 H       1  UNL1        0.0330
     42 H          10.3620    0.1579    8.6948 H       1  UNL1        0.0291
     43 H          10.3620    1.8940    8.4974 H       1  UNL1        0.0291
     44 H           9.6775    2.1598   10.8353 H       1  UNL1        0.0557
     45 H           9.6775    0.4237   11.0328 H       1  UNL1        0.0557
     46 H           8.0632    1.8921    9.2032 H       1  UNL1        0.2094
@<TRIPOS>BOND
     1     1     2    1
     2     2     3    1
     3     3     4    1
     4     4     5    1
     5     5     6    1
     6     6     7    1
     7     7     8    1
     8     8     9    1
     9     9    10    1
    10    10    11    1
    11    11    12   ar
    12    12    13   ar
    13    13    14    1
    14    14    15    1
    15    15    16    1
    16    16    17    1
    17    13    18   ar
    18    18    19   ar
    19    11    19   ar
    20     1    20    1
    21     1    21    1
    22     1    22    1
    23     2    23    1
    24     2    24    1
    25     3    25    1
    26     3    26    1
    27     5    27    1
    28     5    28    1
    29     6    29    1
    30     6    30    1
    31     7    31    1
    32     7    32    1
    33     8    33    1
    34     8    34    1
    35     9    35    1
    36     9    36    1
    37    10    37    1
    38    10    38    1
    39    12    39    1
    40    14    40    1
    41    14    41    1
    42    15    42    1
    43    15    43    1
    44    16    44    1
    45    16    45    1
    46    17    46    1
