@<TRIPOS>MOLECULE
*****
 33 34 0 0 0
SMALL
GASTEIGER

@<TRIPOS>ATOM
      1 O           0.9485    0.0329    0.0791 O.2     1  UNL1       -0.2793
      2 C           2.2194    0.0329    0.0791 C.2     1  UNL1        0.2026
      3 N           2.9544    1.3059    0.0687 N.am    1  UNL1       -0.3016
      4 C           4.4244    1.3059    0.0687 C.3     1  UNL1        0.0272
      5 C           4.9311    2.7389    0.0570 C.3     1  UNL1        0.0150
      6 N           6.4011    2.7389    0.0570 N.3     1  UNL1       -0.2963
      7 C           6.8911    2.0362   -1.1376 C.3     1  UNL1        0.0128
      8 C           6.3844    0.6032   -1.1258 C.3     1  UNL1       -0.0247
      9 C           6.8911   -0.1235   -2.3610 C.3     1  UNL1       -0.0027
     10 N           6.4011   -1.5094   -2.3496 N.3     1  UNL1       -0.3159
     11 C           6.8911   -2.2122   -3.5442 C.3     1  UNL1       -0.0027
     12 C           8.4111    2.0362   -1.1376 C.3     1  UNL1       -0.0247
     13 C           6.8910    4.1248    0.0456 C.3     1  UNL1        0.0150
     14 C           2.2194    2.5789    0.0583 C.3     1  UNL1        0.0272
     15 H           2.7354   -0.8608    0.0865 H       1  UNL1        0.1253
     16 H           4.7811    0.7944   -0.8008 H       1  UNL1        0.0477
     17 H           4.7811    0.8087    0.9465 H       1  UNL1        0.0477
     18 H           4.5744    3.2505    0.9265 H       1  UNL1        0.0442
     19 H           4.5744    3.2362   -0.8208 H       1  UNL1        0.0442
     20 H           6.5344    2.5334   -2.0153 H       1  UNL1        0.0463
     21 H           5.3144    0.6032   -1.1258 H       1  UNL1        0.0293
     22 H           6.7411    0.1059   -0.2481 H       1  UNL1        0.0293
     23 H           7.9611   -0.1235   -2.3610 H       1  UNL1        0.0424
     24 H           6.5344    0.3737   -3.2387 H       1  UNL1        0.0424
     25 H           5.3811   -1.5094   -2.3496 H       1  UNL1        0.1219
     26 H           6.3666   -2.1782   -4.4762 H       1  UNL1        0.0424
     27 H           7.2670   -3.1697   -3.8386 H       1  UNL1        0.0424
     28 H           8.9086    2.7854   -1.7172 H       1  UNL1        0.0293
     29 H           9.0872    2.1422   -0.3151 H       1  UNL1        0.0293
     30 H           7.3323    4.5500   -0.8315 H       1  UNL1        0.0442
     31 H           7.5259    4.7518    0.6361 H       1  UNL1        0.0442
     32 H           1.6421    2.7916   -0.8171 H       1  UNL1        0.0477
     33 H           1.4532    2.8763    0.7435 H       1  UNL1        0.0477
@<TRIPOS>BOND
     1     1     2    2
     2     2     3   am
     3     3     4    1
     4     4     5    1
     5     5     6    1
     6     6     7    1
     7     7     8    1
     8     8     9    1
     9     9    10    1
    10    10    11    1
    11    11    12    1
    12     7    12    1
    13     6    13    1
    14    13    14    1
    15     3    14    1
    16     2    15    1
    17     4    16    1
    18     4    17    1
    19     5    18    1
    20     5    19    1
    21     7    20    1
    22     8    21    1
    23     8    22    1
    24     9    23    1
    25     9    24    1
    26    10    25    1
    27    11    26    1
    28    11    27    1
    29    12    28    1
    30    12    29    1
    31    13    30    1
    32    13    31    1
    33    14    32    1
    34    14    33    1
