@<TRIPOS>MOLECULE
*****
 35 35 0 0 0
SMALL
GASTEIGER

@<TRIPOS>ATOM
      1 C           0.9442   -0.0557    0.0614 C.1     1  UNL1       -0.1192
      2 C           2.2480   -0.0557    0.0614 C.1     1  UNL1       -0.1056
      3 C           3.7680   -0.0557    0.0614 C.3     1  UNL1        0.0089
      4 C           4.2747    1.3430   -0.2505 C.3     1  UNL1       -0.0422
      5 C           5.7947    1.3430   -0.2505 C.3     1  UNL1       -0.0522
      6 C           6.3013    2.7417   -0.5624 C.3     1  UNL1       -0.0530
      7 C           7.8213    2.7417   -0.5624 C.3     1  UNL1       -0.0514
      8 C           8.3280    4.1404   -0.8743 C.3     1  UNL1       -0.0333
      9 C           9.8480    4.1404   -0.8743 C.3     1  UNL1        0.0432
     10 N          10.3380    5.4931   -1.1759 N.ar    1  UNL1       -0.2510
     11 C          11.7074    5.7415   -1.2313 C.ar    1  UNL1        0.0579
     12 C          12.1874    7.0668   -1.5268 C.ar    1  UNL1        0.1666
     13 C          11.1997    8.1944   -1.7783 C.2     1  UNL1        0.2632
     14 N          11.6897    9.5471   -2.0799 N.am    1  UNL1       -0.3240
     15 O           9.9502    7.9678   -1.7277 O.2     1  UNL1       -0.2686
     16 N          13.5568    7.3152   -1.5822 N.ar    1  UNL1       -0.1248
     17 N           9.4637    6.4912   -1.3985 N.ar    1  UNL1       -0.0650
     18 H          -0.0498   -0.0557    0.0614 H       1  UNL1        0.1228
     19 H           4.1247   -0.7382   -0.6815 H       1  UNL1        0.0397
     20 H           4.1247   -0.3579    1.0239 H       1  UNL1        0.0397
     21 H           3.9180    2.0254    0.4925 H       1  UNL1        0.0274
     22 H           3.9180    1.6451   -1.2130 H       1  UNL1        0.0274
     23 H           6.1513    0.6605   -0.9934 H       1  UNL1        0.0266
     24 H           6.1513    1.0408    0.7120 H       1  UNL1        0.0266
     25 H           5.9447    3.4241    0.1806 H       1  UNL1        0.0265
     26 H           5.9447    3.0439   -1.5249 H       1  UNL1        0.0265
     27 H           8.1780    2.0592   -1.3053 H       1  UNL1        0.0266
     28 H           8.1780    2.4395    0.4001 H       1  UNL1        0.0266
     29 H           7.9713    4.8229   -0.1313 H       1  UNL1        0.0283
     30 H           7.9713    4.4426   -1.8368 H       1  UNL1        0.0283
     31 H          10.2047    3.4580   -1.6172 H       1  UNL1        0.0509
     32 H          10.2047    3.8382    0.0882 H       1  UNL1        0.0509
     33 H          12.3780    4.9759   -1.0606 H       1  UNL1        0.0850
     34 H          12.6576    9.7227   -2.1191 H       1  UNL1        0.1453
     35 H          11.0499   10.2775   -2.2428 H       1  UNL1        0.1453
@<TRIPOS>BOND
     1     1     2    3
     2     2     3    1
     3     3     4    1
     4     4     5    1
     5     5     6    1
     6     6     7    1
     7     7     8    1
     8     8     9    1
     9     9    10    1
    10    10    11   ar
    11    11    12   ar
    12    12    13    1
    13    13    14   am
    14    13    15    2
    15    12    16   ar
    16    16    17   ar
    17    10    17   ar
    18     1    18    1
    19     3    19    1
    20     3    20    1
    21     4    21    1
    22     4    22    1
    23     5    23    1
    24     5    24    1
    25     6    25    1
    26     6    26    1
    27     7    27    1
    28     7    28    1
    29     8    29    1
    30     8    30    1
    31     9    31    1
    32     9    32    1
    33    11    33    1
    34    14    34    1
    35    14    35    1
