@<TRIPOS>MOLECULE
*****
 33 34 0 0 0
SMALL
GASTEIGER

@<TRIPOS>ATOM
      1 O           0.9337   -0.0147   -0.0734 O.2     1  UNL1       -0.2793
      2 C           2.2046   -0.0147   -0.0734 C.2     1  UNL1        0.2026
      3 N           2.9396   -1.0398   -0.8284 N.am    1  UNL1       -0.3016
      4 C           4.4096   -1.0398   -0.8284 C.3     1  UNL1        0.0272
      5 C           4.9163   -2.1937   -1.6782 C.3     1  UNL1        0.0150
      6 N           6.3863   -2.1937   -1.6782 N.3     1  UNL1       -0.2963
      7 C           6.8763   -2.3475   -0.3008 C.3     1  UNL1        0.0128
      8 C           6.3696   -1.1936    0.5490 C.3     1  UNL1       -0.0247
      9 C           6.8763   -1.3526    1.9732 C.3     1  UNL1       -0.0027
     10 N           6.3863   -0.2366    2.7951 N.3     1  UNL1       -0.3159
     11 C           6.8763   -0.3904    4.1725 C.3     1  UNL1       -0.0027
     12 C           8.3963   -2.3475   -0.3008 C.3     1  UNL1       -0.0247
     13 C           6.8763   -3.3096   -2.5000 C.3     1  UNL1        0.0150
     14 C           2.2046   -2.0649   -1.5833 C.3     1  UNL1        0.0272
     15 H           2.7206    0.7049    0.4566 H       1  UNL1        0.1253
     16 H           4.7663   -1.1517    0.1742 H       1  UNL1        0.0477
     17 H           4.7663   -0.1156   -1.2327 H       1  UNL1        0.0477
     18 H           4.5596   -2.0818   -2.6808 H       1  UNL1        0.0442
     19 H           4.5596   -3.1179   -1.2738 H       1  UNL1        0.0442
     20 H           6.5196   -3.2717    0.1035 H       1  UNL1        0.0463
     21 H           5.2996   -1.1936    0.5490 H       1  UNL1        0.0293
     22 H           6.7263   -0.2693    0.1447 H       1  UNL1        0.0293
     23 H           7.9463   -1.3526    1.9732 H       1  UNL1        0.0424
     24 H           6.5196   -2.2768    2.3776 H       1  UNL1        0.0424
     25 H           5.3663   -0.2366    2.7951 H       1  UNL1        0.1219
     26 H           6.3518   -0.9764    4.8980 H       1  UNL1        0.0424
     27 H           7.2522    0.1994    4.9822 H       1  UNL1        0.0424
     28 H           8.8938   -3.2947   -0.2861 H       1  UNL1        0.0293
     29 H           9.0724   -1.9392   -1.0226 H       1  UNL1        0.0293
     30 H           7.3175   -4.1759   -2.0530 H       1  UNL1        0.0442
     31 H           7.5112   -3.4574   -3.3486 H       1  UNL1        0.0442
     32 H           1.6273   -2.7599   -1.0102 H       1  UNL1        0.0477
     33 H           1.4385   -1.8920   -2.3099 H       1  UNL1        0.0477
@<TRIPOS>BOND
     1     1     2    2
     2     2     3   am
     3     3     4    1
     4     4     5    1
     5     5     6    1
     6     6     7    1
     7     7     8    1
     8     8     9    1
     9     9    10    1
    10    10    11    1
    11    11    12    1
    12     7    12    1
    13     6    13    1
    14    13    14    1
    15     3    14    1
    16     2    15    1
    17     4    16    1
    18     4    17    1
    19     5    18    1
    20     5    19    1
    21     7    20    1
    22     8    21    1
    23     8    22    1
    24     9    23    1
    25     9    24    1
    26    10    25    1
    27    11    26    1
    28    11    27    1
    29    12    28    1
    30    12    29    1
    31    13    30    1
    32    13    31    1
    33    14    32    1
    34    14    33    1
