@<TRIPOS>MOLECULE
*****
 33 33 0 0 0
SMALL
GASTEIGER

@<TRIPOS>ATOM
      1 C           0.9670    0.0676   -0.0659 C.3     1  UNL1       -0.0653
      2 C           2.4870    0.0676   -0.0659 C.3     1  UNL1       -0.0555
      3 C           2.9937    1.1463    0.8777 C.3     1  UNL1       -0.0450
      4 C           4.5137    1.1463    0.8777 C.3     1  UNL1        0.0241
      5 C           5.0203    2.2249    1.8212 C.2     1  UNL1        0.2156
      6 O           4.1944    2.9519    2.4572 O.2     1  UNL1       -0.2756
      7 N           6.4656    2.4271    1.9981 N.am    1  UNL1       -0.2990
      8 C           6.9556    3.4702    2.9106 C.3     1  UNL1        0.0275
      9 C           8.4756    3.4702    2.9106 C.3     1  UNL1        0.0145
     10 N           8.9656    4.5133    3.8231 N.3     1  UNL1       -0.3024
     11 C           8.4755    4.2447    5.1827 C.3     1  UNL1       -0.0126
     12 C          10.4356    4.5133    3.8231 C.3     1  UNL1        0.0145
     13 C           7.4208    1.5861    1.2624 C.3     1  UNL1        0.0275
     14 H           0.6103   -0.6917   -0.7301 H       1  UNL1        0.0230
     15 H           0.6103    1.0225   -0.3913 H       1  UNL1        0.0230
     16 H           0.6103   -0.1279    0.9238 H       1  UNL1        0.0230
     17 H           2.8437    0.2632   -1.0555 H       1  UNL1        0.0263
     18 H           2.8437   -0.8872    0.2596 H       1  UNL1        0.0263
     19 H           2.6370    0.9507    1.8674 H       1  UNL1        0.0270
     20 H           2.6370    2.1011    0.5522 H       1  UNL1        0.0270
     21 H           4.8703    1.3418   -0.1120 H       1  UNL1        0.0358
     22 H           4.8703    0.1914    1.2031 H       1  UNL1        0.0358
     23 H           6.5989    3.2746    3.9002 H       1  UNL1        0.0477
     24 H           6.5989    4.4251    2.5851 H       1  UNL1        0.0477
     25 H           8.8322    3.6658    1.9209 H       1  UNL1        0.0442
     26 H           8.8322    2.5153    3.2360 H       1  UNL1        0.0442
     27 H           7.4055    4.2447    5.1827 H       1  UNL1        0.0391
     28 H           8.8322    5.0040    5.8469 H       1  UNL1        0.0391
     29 H           8.8322    3.2898    5.5082 H       1  UNL1        0.0391
     30 H          10.9903    4.1428    4.6596 H       1  UNL1        0.0442
     31 H          11.2337    5.1999    3.6323 H       1  UNL1        0.0442
     32 H           7.4356    0.5460    1.5134 H       1  UNL1        0.0477
     33 H           7.4405    1.4219    0.2053 H       1  UNL1        0.0477
@<TRIPOS>BOND
     1     1     2    1
     2     2     3    1
     3     3     4    1
     4     4     5    1
     5     5     6    2
     6     5     7   am
     7     7     8    1
     8     8     9    1
     9     9    10    1
    10    10    11    1
    11    10    12    1
    12    12    13    1
    13     7    13    1
    14     1    14    1
    15     1    15    1
    16     1    16    1
    17     2    17    1
    18     2    18    1
    19     3    19    1
    20     3    20    1
    21     4    21    1
    22     4    22    1
    23     8    23    1
    24     8    24    1
    25     9    25    1
    26     9    26    1
    27    11    27    1
    28    11    28    1
    29    11    29    1
    30    12    30    1
    31    12    31    1
    32    13    32    1
    33    13    33    1
