@<TRIPOS>MOLECULE
*****
 39 40 0 0 0
SMALL
GASTEIGER

@<TRIPOS>ATOM
      1 C           0.9911   -0.0628   -0.0773 C.3     1  UNL1       -0.0652
      2 C           2.5111   -0.0628   -0.0773 C.3     1  UNL1       -0.0528
      3 C           3.0178    0.2022    1.3310 C.3     1  UNL1       -0.0189
      4 C           4.5378    0.2022    1.3310 C.3     1  UNL1        0.0896
      5 O           5.0111    0.4498    2.6467 O.3     1  UNL1       -0.4920
      6 C           6.4072    0.4978    2.9018 C.ar    1  UNL1        0.1206
      7 C           6.8872    0.7489    4.2362 C.ar    1  UNL1       -0.0179
      8 C           8.3032    0.7975    4.4948 C.ar    1  UNL1       -0.0311
      9 C           8.7833    1.0486    5.8292 C.ar    1  UNL1        0.0864
     10 N           7.8280    1.2552    6.9273 N.2     1  UNL1       -0.1493
     11 N           6.5785    1.2123    6.6990 N.2     1  UNL1       -0.1493
     12 C           5.6233    1.4189    7.7971 C.ar    1  UNL1        0.0862
     13 C           4.2073    1.3703    7.5384 C.ar    1  UNL1       -0.0339
     14 C           3.2714    1.5727    8.6142 C.ar    1  UNL1       -0.0495
     15 C           1.8555    1.5240    8.3556 C.ar    1  UNL1        0.0143
     16 C           1.3488    1.2590    6.9472 C.2     1  UNL1        0.1502
     17 O           2.1747    1.0804    5.9979 O.2     1  UNL1       -0.2957
     18 C           0.9196    1.7264    9.4314 C.ar    1  UNL1       -0.0495
     19 C           6.1033    1.6700    9.1315 C.ar    1  UNL1       -0.0339
     20 C          10.1992    1.0973    6.0879 C.ar    1  UNL1       -0.0311
     21 C           7.3431    0.2953    1.8260 C.ar    1  UNL1       -0.0179
     22 H           0.6344   -0.2494   -1.0687 H       1  UNL1        0.0230
     23 H           0.6344    0.8891    0.2568 H       1  UNL1        0.0230
     24 H           0.6344   -0.8281    0.5800 H       1  UNL1        0.0230
     25 H           2.8678    0.7025   -0.7346 H       1  UNL1        0.0264
     26 H           2.8678   -1.0147   -0.4115 H       1  UNL1        0.0264
     27 H           2.6611   -0.5631    1.9883 H       1  UNL1        0.0298
     28 H           2.6611    1.1541    1.6652 H       1  UNL1        0.0298
     29 H           4.8944    0.9675    0.6738 H       1  UNL1        0.0696
     30 H           4.8944   -0.7497    0.9969 H       1  UNL1        0.0696
     31 H           6.2166    0.8939    5.0070 H       1  UNL1        0.0655
     32 H           8.9738    0.6525    3.7239 H       1  UNL1        0.0640
     33 H           3.8633    1.1903    6.5822 H       1  UNL1        0.0639
     34 H           3.6154    1.7526    9.5704 H       1  UNL1        0.0625
     35 H           0.3342    1.2241    6.7619 H       1  UNL1        0.1081
     36 H          -0.0046    1.8114    9.8826 H       1  UNL1        0.0625
     37 H           6.9631    1.7756    9.6924 H       1  UNL1        0.0639
     38 H          11.0590    1.2028    6.6488 H       1  UNL1        0.0640
     39 H           7.4075    0.1049    0.8137 H       1  UNL1        0.0655
@<TRIPOS>BOND
     1     1     2    1
     2     2     3    1
     3     3     4    1
     4     4     5    1
     5     5     6    1
     6     6     7   ar
     7     7     8   ar
     8     8     9   ar
     9     9    10    1
    10    10    11    2
    11    11    12    1
    12    12    13   ar
    13    13    14   ar
    14    14    15   ar
    15    15    16    1
    16    16    17    2
    17    15    18   ar
    18    18    19   ar
    19    12    19   ar
    20     9    20   ar
    21    20    21   ar
    22     6    21   ar
    23     1    22    1
    24     1    23    1
    25     1    24    1
    26     2    25    1
    27     2    26    1
    28     3    27    1
    29     3    28    1
    30     4    29    1
    31     4    30    1
    32     7    31    1
    33     8    32    1
    34    13    33    1
    35    14    34    1
    36    16    35    1
    37    18    36    1
    38    19    37    1
    39    20    38    1
    40    21    39    1
