@<TRIPOS>MOLECULE
*****
 15 14 0 0 0
SMALL
GASTEIGER

@<TRIPOS>ATOM
      1 C           1.0906    0.0295    0.0305 C.3     1  UNL1       -0.0652
      2 C           2.6106    0.0295    0.0305 C.3     1  UNL1       -0.0538
      3 C           3.1172   -0.0516    1.4612 C.3     1  UNL1       -0.0300
      4 C           4.6372   -0.0516    1.4612 C.3     1  UNL1        0.0442
      5 O           5.1105   -0.1273    2.7979 O.3     1  UNL1       -0.3950
      6 H           0.7339    0.0866   -0.9767 H       1  UNL1        0.0230
      7 H           0.7339    0.8732    0.5835 H       1  UNL1        0.0230
      8 H           0.7339   -0.8713    0.4846 H       1  UNL1        0.0230
      9 H           2.9672    0.9303   -0.4237 H       1  UNL1        0.0263
     10 H           2.9672   -0.8142   -0.5226 H       1  UNL1        0.0263
     11 H           2.7606   -0.9524    1.9154 H       1  UNL1        0.0287
     12 H           2.7605    0.7922    2.0143 H       1  UNL1        0.0287
     13 H           4.9939    0.8492    1.0071 H       1  UNL1        0.0557
     14 H           4.9939   -0.8953    0.9082 H       1  UNL1        0.0557
     15 H           4.7872    0.6376    3.2992 H       1  UNL1        0.2094
@<TRIPOS>BOND
     1     1     2    1
     2     2     3    1
     3     3     4    1
     4     4     5    1
     5     1     6    1
     6     1     7    1
     7     1     8    1
     8     2     9    1
     9     2    10    1
    10     3    11    1
    11     3    12    1
    12     4    13    1
    13     4    14    1
    14     5    15    1
