@<TRIPOS>MOLECULE
*****
 41 41 0 0 0
SMALL
GASTEIGER

@<TRIPOS>ATOM
      1 C           0.9700    0.0857    0.0419 C.3     1  UNL1       -0.0416
      2 C           2.4900    0.0857    0.0419 C.3     1  UNL1        0.0449
      3 O           2.9633   -0.6036    1.1896 O.3     1  UNL1       -0.3778
      4 C           4.3833   -0.6036    1.1896 C.3     1  UNL1        0.0710
      5 C           4.8900   -1.3415    2.4181 C.3     1  UNL1        0.0711
      6 O           6.3100   -1.3415    2.4181 O.3     1  UNL1       -0.3757
      7 C           6.7833   -2.0309    3.5658 C.3     1  UNL1        0.0673
      8 C           8.3033   -2.0309    3.5658 C.3     1  UNL1        0.0665
      9 N           8.7933   -2.7445    4.7539 N.ar    1  UNL1       -0.2492
     10 C          10.1626   -2.8755    4.9720 C.ar    1  UNL1        0.0487
     11 C          10.6427   -3.5746    6.1361 C.ar    1  UNL1        0.0829
     12 C           9.6550   -4.1695    7.1265 C.3     1  UNL1       -0.0067
     13 C           8.2365   -3.8883    6.6583 C.3     1  UNL1       -0.0393
     14 C           7.2487   -4.4832    7.6487 C.3     1  UNL1        0.0241
     15 C           5.8302   -4.2020    7.1805 C.2     1  UNL1        0.2105
     16 N           5.6018   -3.4543    5.9356 N.am    1  UNL1       -0.3293
     17 O           4.8418   -4.6132    7.8653 O.2     1  UNL1       -0.2760
     18 N          12.0121   -3.7057    6.3542 N.ar    1  UNL1       -0.1345
     19 N           7.9190   -3.2710    5.6305 N.ar    1  UNL1       -0.0654
     20 H           0.6133    0.6051   -0.8229 H       1  UNL1        0.0252
     21 H           0.6133    0.5749    0.9241 H       1  UNL1        0.0252
     22 H           0.6133   -0.9230    0.0245 H       1  UNL1        0.0252
     23 H           2.8466    1.0943    0.0593 H       1  UNL1        0.0557
     24 H           2.8466   -0.4035   -0.8403 H       1  UNL1        0.0557
     25 H           4.7400    0.4050    1.2070 H       1  UNL1        0.0583
     26 H           4.7400   -1.0929    0.3073 H       1  UNL1        0.0583
     27 H           4.5333   -2.3502    2.4006 H       1  UNL1        0.0583
     28 H           4.5333   -0.8523    3.3003 H       1  UNL1        0.0583
     29 H           6.4266   -3.0395    3.5483 H       1  UNL1        0.0578
     30 H           6.4266   -1.5416    4.4480 H       1  UNL1        0.0578
     31 H           8.6599   -1.0222    3.5832 H       1  UNL1        0.0532
     32 H           8.6600   -2.5201    2.6835 H       1  UNL1        0.0532
     33 H          10.8333   -2.4716    4.2996 H       1  UNL1        0.0845
     34 H           9.8066   -3.7289    8.0897 H       1  UNL1        0.0329
     35 H           9.8066   -5.2268    7.1900 H       1  UNL1        0.0329
     36 H           8.0849   -4.3289    5.6950 H       1  UNL1        0.0273
     37 H           8.0849   -2.8310    6.5947 H       1  UNL1        0.0273
     38 H           7.4003   -4.0426    8.6119 H       1  UNL1        0.0358
     39 H           7.4003   -5.5405    7.7122 H       1  UNL1        0.0358
     40 H           6.3675   -3.1356    5.4052 H       1  UNL1        0.1449
     41 H           4.6830   -3.2721    5.6324 H       1  UNL1        0.1449
@<TRIPOS>BOND
     1     1     2    1
     2     2     3    1
     3     3     4    1
     4     4     5    1
     5     5     6    1
     6     6     7    1
     7     7     8    1
     8     8     9    1
     9     9    10   ar
    10    10    11   ar
    11    11    12    1
    12    12    13    1
    13    13    14    1
    14    14    15    1
    15    15    16   am
    16    15    17    2
    17    11    18   ar
    18    18    19   ar
    19     9    19   ar
    20     1    20    1
    21     1    21    1
    22     1    22    1
    23     2    23    1
    24     2    24    1
    25     4    25    1
    26     4    26    1
    27     5    27    1
    28     5    28    1
    29     7    29    1
    30     7    30    1
    31     8    31    1
    32     8    32    1
    33    10    33    1
    34    12    34    1
    35    12    35    1
    36    13    36    1
    37    13    37    1
    38    14    38    1
    39    14    39    1
    40    16    40    1
    41    16    41    1
