@<TRIPOS>MOLECULE
*****
 32 32 0 0 0
SMALL
GASTEIGER

@<TRIPOS>ATOM
      1 N           0.9075    0.0332    0.0183 N.3     1  UNL1       -0.3300
      2 C           2.3775    0.0332    0.0183 C.3     1  UNL1       -0.0069
      3 C           2.8841   -1.3081    0.5230 C.3     1  UNL1       -0.0392
      4 C           4.4041   -1.3081    0.5230 C.3     1  UNL1       -0.0362
      5 C           4.9108   -2.6493    1.0277 C.3     1  UNL1        0.0119
      6 N           6.3808   -2.6493    1.0277 N.am    1  UNL1       -0.3113
      7 C           7.1158   -3.8408    1.4760 C.2     1  UNL1        0.2441
      8 O           6.4803   -4.8709    1.8637 O.2     1  UNL1       -0.2702
      9 C           8.6358   -3.8408    1.4760 C.ar    1  UNL1        0.0368
     10 C           9.3559   -5.0082    1.9153 C.ar    1  UNL1       -0.0479
     11 C          10.7961   -5.0082    1.9153 C.ar    1  UNL1       -0.0403
     12 C          11.5162   -6.1755    2.3546 C.ar    1  UNL1        0.0246
     13 N          10.7812   -7.3670    2.8029 N.pl3   1  UNL1       -0.3580
     14 C          12.9564   -6.1755    2.3546 C.ar    1  UNL1       -0.0403
     15 C           9.3559   -2.6735    1.0368 C.ar    1  UNL1       -0.0479
     16 H           0.5675    0.9332   -0.3204 H       1  UNL1        0.1182
     17 H           0.5675   -0.1235    0.9671 H       1  UNL1        0.1182
     18 H           2.7341    0.8130    0.6583 H       1  UNL1        0.0422
     19 H           2.7341    0.1976   -0.9770 H       1  UNL1        0.0422
     20 H           2.5275   -2.0878   -0.1170 H       1  UNL1        0.0278
     21 H           2.5275   -1.4725    1.5183 H       1  UNL1        0.0278
     22 H           4.7608   -0.5283    1.1630 H       1  UNL1        0.0281
     23 H           4.7608   -1.1437   -0.4723 H       1  UNL1        0.0281
     24 H           4.5541   -3.4291    0.3877 H       1  UNL1        0.0462
     25 H           4.5541   -2.8137    2.0230 H       1  UNL1        0.0462
     26 H           6.8730   -1.8514    0.7274 H       1  UNL1        0.1490
     27 H           8.8399   -5.8446    2.2301 H       1  UNL1        0.0626
     28 H          11.3121   -4.1717    1.6005 H       1  UNL1        0.0636
     29 H           9.7967   -7.3670    2.8029 H       1  UNL1        0.1423
     30 H          11.2734   -8.1650    3.1032 H       1  UNL1        0.1423
     31 H          13.9060   -6.5537    2.4969 H       1  UNL1        0.0636
     32 H           9.2310   -1.7147    0.6760 H       1  UNL1        0.0626
@<TRIPOS>BOND
     1     1     2    1
     2     2     3    1
     3     3     4    1
     4     4     5    1
     5     5     6    1
     6     6     7   am
     7     7     8    2
     8     7     9    1
     9     9    10   ar
    10    10    11   ar
    11    11    12   ar
    12    12    13    1
    13    12    14   ar
    14    14    15   ar
    15     9    15   ar
    16     1    16    1
    17     1    17    1
    18     2    18    1
    19     2    19    1
    20     3    20    1
    21     3    21    1
    22     4    22    1
    23     4    23    1
    24     5    24    1
    25     5    25    1
    26     6    26    1
    27    10    27    1
    28    11    28    1
    29    13    29    1
    30    13    30    1
    31    14    31    1
    32    15    32    1
