@<TRIPOS>MOLECULE
*****
 51 51 0 0 0
SMALL
GASTEIGER

@<TRIPOS>ATOM
      1 N           1.0347   -0.0713   -0.0609 N.3     1  UNL1       -0.3279
      2 C           2.5047   -0.0713   -0.0609 C.3     1  UNL1        0.0166
      3 C           3.0114   -1.4944   -0.2293 C.3     1  UNL1        0.0600
      4 O           4.4314   -1.4944   -0.2293 O.3     1  UNL1       -0.3763
      5 C           4.9047   -2.8239   -0.3866 C.3     1  UNL1        0.0711
      6 C           6.4247   -2.8239   -0.3866 C.3     1  UNL1        0.0711
      7 O           6.8980   -4.1535   -0.5439 O.3     1  UNL1       -0.3752
      8 C           8.3180   -4.1535   -0.5439 C.3     1  UNL1        0.0711
      9 C           8.8247   -5.5766   -0.7123 C.3     1  UNL1        0.0711
     10 O          10.2447   -5.5766   -0.7123 O.3     1  UNL1       -0.3752
     11 C          10.7180   -6.9061   -0.8696 C.3     1  UNL1        0.0711
     12 C          12.2380   -6.9061   -0.8696 C.3     1  UNL1        0.0711
     13 O          12.7114   -8.2356   -1.0269 O.3     1  UNL1       -0.3752
     14 C          14.1314   -8.2356   -1.0269 C.3     1  UNL1        0.0711
     15 C          14.6380   -9.6588   -1.1953 C.3     1  UNL1        0.0711
     16 O          16.0580   -9.6588   -1.1953 O.3     1  UNL1       -0.3757
     17 C          16.5314  -10.9883   -1.3526 C.3     1  UNL1        0.0673
     18 C          18.0514  -10.9883   -1.3526 C.3     1  UNL1        0.0665
     19 N          18.5413  -12.3646   -1.5155 N.ar    1  UNL1       -0.2495
     20 C          19.9107  -12.6174   -1.5454 C.ar    1  UNL1        0.0455
     21 C          20.3908  -13.9658   -1.7049 C.ar    1  UNL1        0.0693
     22 N          21.7602  -14.2186   -1.7348 N.ar    1  UNL1       -0.1380
     23 N          17.6670  -13.3802   -1.6357 N.ar    1  UNL1       -0.0657
     24 H           0.6947    0.8837    0.0521 H       1  UNL1        0.1183
     25 H           0.6947   -0.6466    0.7096 H       1  UNL1        0.1183
     26 H           2.8614    0.3270    0.8659 H       1  UNL1        0.0444
     27 H           2.8614    0.5323   -0.8693 H       1  UNL1        0.0444
     28 H           2.6547   -1.8927   -1.1562 H       1  UNL1        0.0572
     29 H           2.6547   -2.0980    0.5790 H       1  UNL1        0.0572
     30 H           4.5480   -3.2222   -1.3135 H       1  UNL1        0.0583
     31 H           4.5480   -3.4275    0.4217 H       1  UNL1        0.0583
     32 H           6.7814   -2.4257    0.5402 H       1  UNL1        0.0583
     33 H           6.7814   -2.2204   -1.1950 H       1  UNL1        0.0583
     34 H           8.6747   -3.7552    0.3829 H       1  UNL1        0.0583
     35 H           8.6747   -3.5499   -1.3523 H       1  UNL1        0.0583
     36 H           8.4680   -5.9748   -1.6392 H       1  UNL1        0.0583
     37 H           8.4680   -6.1802    0.0960 H       1  UNL1        0.0583
     38 H          10.3614   -7.3044   -1.7965 H       1  UNL1        0.0583
     39 H          10.3614   -7.5097   -0.0613 H       1  UNL1        0.0583
     40 H          12.5947   -6.5079    0.0572 H       1  UNL1        0.0583
     41 H          12.5947   -6.3025   -1.6780 H       1  UNL1        0.0583
     42 H          14.4880   -7.8374   -0.1001 H       1  UNL1        0.0583
     43 H          14.4880   -7.6321   -1.8353 H       1  UNL1        0.0583
     44 H          14.2814  -10.0570   -2.1222 H       1  UNL1        0.0583
     45 H          14.2814  -10.2623   -0.3870 H       1  UNL1        0.0583
     46 H          16.1747  -11.3865   -2.2795 H       1  UNL1        0.0578
     47 H          16.1747  -11.5919   -0.5443 H       1  UNL1        0.0578
     48 H          18.4080  -10.5900   -0.4258 H       1  UNL1        0.0532
     49 H          18.4080  -10.3847   -2.1610 H       1  UNL1        0.0532
     50 H          20.5813  -11.8384   -1.4532 H       1  UNL1        0.0842
     51 H          19.7202  -14.7448   -1.7971 H       1  UNL1        0.0864
@<TRIPOS>BOND
     1     1     2    1
     2     2     3    1
     3     3     4    1
     4     4     5    1
     5     5     6    1
     6     6     7    1
     7     7     8    1
     8     8     9    1
     9     9    10    1
    10    10    11    1
    11    11    12    1
    12    12    13    1
    13    13    14    1
    14    14    15    1
    15    15    16    1
    16    16    17    1
    17    17    18    1
    18    18    19    1
    19    19    20   ar
    20    20    21   ar
    21    21    22   ar
    22    22    23   ar
    23    19    23   ar
    24     1    24    1
    25     1    25    1
    26     2    26    1
    27     2    27    1
    28     3    28    1
    29     3    29    1
    30     5    30    1
    31     5    31    1
    32     6    32    1
    33     6    33    1
    34     8    34    1
    35     8    35    1
    36     9    36    1
    37     9    37    1
    38    11    38    1
    39    11    39    1
    40    12    40    1
    41    12    41    1
    42    14    42    1
    43    14    43    1
    44    15    44    1
    45    15    45    1
    46    17    46    1
    47    17    47    1
    48    18    48    1
    49    18    49    1
    50    20    50    1
    51    21    51    1
