@<TRIPOS>MOLECULE
*****
 28 27 0 0 0
SMALL
GASTEIGER

@<TRIPOS>ATOM
      1 C           1.0103    0.0761    0.0641 C.3     1  UNL1       -0.0653
      2 C           2.5303    0.0761    0.0641 C.3     1  UNL1       -0.0559
      3 C           3.0369    0.9506   -1.0712 C.3     1  UNL1       -0.0533
      4 C           4.5569    0.9506   -1.0712 C.3     1  UNL1       -0.0531
      5 C           5.0636    1.8252   -2.2065 C.3     1  UNL1       -0.0530
      6 C           6.5836    1.8252   -2.2065 C.3     1  UNL1       -0.0519
      7 C           7.0902    2.6997   -3.3417 C.3     1  UNL1       -0.0406
      8 C           8.6102    2.6997   -3.3417 C.3     1  UNL1       -0.0069
      9 N           9.1002    3.5455   -4.4397 N.3     1  UNL1       -0.3300
     10 H           0.6536   -0.5396    0.8633 H       1  UNL1        0.0230
     11 H           0.6536   -0.3082   -0.8687 H       1  UNL1        0.0230
     12 H           0.6536    1.0760    0.1977 H       1  UNL1        0.0230
     13 H           2.8869   -0.9239   -0.0695 H       1  UNL1        0.0263
     14 H           2.8869    0.4604    0.9968 H       1  UNL1        0.0263
     15 H           2.6802    1.9505   -0.9376 H       1  UNL1        0.0265
     16 H           2.6802    0.5663   -2.0039 H       1  UNL1        0.0265
     17 H           4.9136   -0.0493   -1.2048 H       1  UNL1        0.0265
     18 H           4.9136    1.3349   -0.1384 H       1  UNL1        0.0265
     19 H           4.7069    2.8251   -2.0729 H       1  UNL1        0.0265
     20 H           4.7069    1.4409   -3.1392 H       1  UNL1        0.0265
     21 H           6.9402    0.8252   -2.3400 H       1  UNL1        0.0266
     22 H           6.9402    2.2095   -1.2737 H       1  UNL1        0.0266
     23 H           6.7336    3.6996   -3.2082 H       1  UNL1        0.0277
     24 H           6.7336    2.3154   -4.2745 H       1  UNL1        0.0277
     25 H           8.9669    1.6998   -3.4753 H       1  UNL1        0.0422
     26 H           8.9669    3.0840   -2.4090 H       1  UNL1        0.0422
     27 H           8.7602    3.1792   -5.3288 H       1  UNL1        0.1182
     28 H          10.1202    3.5455   -4.4397 H       1  UNL1        0.1182
@<TRIPOS>BOND
     1     1     2    1
     2     2     3    1
     3     3     4    1
     4     4     5    1
     5     5     6    1
     6     6     7    1
     7     7     8    1
     8     8     9    1
     9     1    10    1
    10     1    11    1
    11     1    12    1
    12     2    13    1
    13     2    14    1
    14     3    15    1
    15     3    16    1
    16     4    17    1
    17     4    18    1
    18     5    19    1
    19     5    20    1
    20     6    21    1
    21     6    22    1
    22     7    23    1
    23     7    24    1
    24     8    25    1
    25     8    26    1
    26     9    27    1
    27     9    28    1
