@<TRIPOS>MOLECULE
*****
 53 53 0 0 0
SMALL
GASTEIGER

@<TRIPOS>ATOM
      1 N           1.0410   -0.0579    0.0704 N.3     1  UNL1       -0.3279
      2 C           2.5110   -0.0579    0.0704 C.3     1  UNL1        0.0166
      3 C           3.0177    0.9910   -0.9060 C.3     1  UNL1        0.0600
      4 O           4.4377    0.9910   -0.9060 O.3     1  UNL1       -0.3763
      5 C           4.9110    1.9710   -1.8182 C.3     1  UNL1        0.0711
      6 C           6.4310    1.9710   -1.8182 C.3     1  UNL1        0.0711
      7 O           6.9043    2.9509   -2.7303 O.3     1  UNL1       -0.3752
      8 C           8.3243    2.9509   -2.7303 C.3     1  UNL1        0.0711
      9 C           8.8310    3.9999   -3.7067 C.3     1  UNL1        0.0711
     10 O          10.2510    3.9999   -3.7067 O.3     1  UNL1       -0.3757
     11 C          10.7243    4.9798   -4.6189 C.3     1  UNL1        0.0673
     12 C          12.2443    4.9798   -4.6189 C.3     1  UNL1        0.0665
     13 N          12.7343    5.9943   -5.5632 N.ar    1  UNL1       -0.2492
     14 C          14.1037    6.1806   -5.7366 C.ar    1  UNL1        0.0487
     15 C          14.5838    7.1745   -6.6618 C.ar    1  UNL1        0.0828
     16 C          13.5960    8.0201   -7.4489 C.3     1  UNL1       -0.0071
     17 C          12.1775    7.6204   -7.0768 C.3     1  UNL1       -0.0475
     18 C          11.1898    8.4660   -7.8640 C.3     1  UNL1       -0.0506
     19 C           9.7713    8.0662   -7.4918 C.3     1  UNL1       -0.0297
     20 C           8.7835    8.9119   -8.2790 C.3     1  UNL1        0.0442
     21 O           7.4584    8.5384   -7.9314 O.3     1  UNL1       -0.3950
     22 N          15.9531    7.3608   -6.8352 N.ar    1  UNL1       -0.1345
     23 N          11.8600    6.7428   -6.2600 N.ar    1  UNL1       -0.0654
     24 H           0.7010   -0.7619    0.7256 H       1  UNL1        0.1183
     25 H           0.7010   -0.2734   -0.8668 H       1  UNL1        0.1183
     26 H           2.8677   -1.0224   -0.2254 H       1  UNL1        0.0444
     27 H           2.8677    0.1681    1.0536 H       1  UNL1        0.0444
     28 H           2.6610    1.9555   -0.6102 H       1  UNL1        0.0572
     29 H           2.6610    0.7650   -1.8891 H       1  UNL1        0.0572
     30 H           4.5543    2.9354   -1.5223 H       1  UNL1        0.0583
     31 H           4.5543    1.7449   -2.8013 H       1  UNL1        0.0583
     32 H           6.7877    1.0065   -2.1140 H       1  UNL1        0.0583
     33 H           6.7877    2.1970   -0.8350 H       1  UNL1        0.0583
     34 H           8.6810    1.9865   -3.0261 H       1  UNL1        0.0583
     35 H           8.6810    3.1770   -1.7472 H       1  UNL1        0.0583
     36 H           8.4743    4.9643   -3.4109 H       1  UNL1        0.0583
     37 H           8.4743    3.7738   -4.6899 H       1  UNL1        0.0583
     38 H          10.3677    5.9443   -4.3231 H       1  UNL1        0.0578
     39 H          10.3677    4.7538   -5.6021 H       1  UNL1        0.0578
     40 H          12.6010    4.0154   -4.9147 H       1  UNL1        0.0532
     41 H          12.6010    5.2059   -3.6358 H       1  UNL1        0.0532
     42 H          14.7743    5.6064   -5.2022 H       1  UNL1        0.0845
     43 H          13.7476    7.8632   -8.4964 H       1  UNL1        0.0329
     44 H          13.7476    9.0537   -7.2175 H       1  UNL1        0.0329
     45 H          12.0259    7.7773   -6.0293 H       1  UNL1        0.0269
     46 H          12.0259    6.5868   -7.3082 H       1  UNL1        0.0269
     47 H          11.3414    8.3091   -8.9115 H       1  UNL1        0.0266
     48 H          11.3414    9.4996   -7.6325 H       1  UNL1        0.0266
     49 H           9.6197    8.2231   -6.4443 H       1  UNL1        0.0287
     50 H           9.6197    7.0326   -7.7233 H       1  UNL1        0.0287
     51 H           8.9352    8.7550   -9.3265 H       1  UNL1        0.0557
     52 H           8.9352    9.9455   -8.0476 H       1  UNL1        0.0557
     53 H           7.3209    7.6014   -8.1412 H       1  UNL1        0.2094
@<TRIPOS>BOND
     1     1     2    1
     2     2     3    1
     3     3     4    1
     4     4     5    1
     5     5     6    1
     6     6     7    1
     7     7     8    1
     8     8     9    1
     9     9    10    1
    10    10    11    1
    11    11    12    1
    12    12    13    1
    13    13    14   ar
    14    14    15   ar
    15    15    16    1
    16    16    17    1
    17    17    18    1
    18    18    19    1
    19    19    20    1
    20    20    21    1
    21    15    22   ar
    22    22    23   ar
    23    13    23   ar
    24     1    24    1
    25     1    25    1
    26     2    26    1
    27     2    27    1
    28     3    28    1
    29     3    29    1
    30     5    30    1
    31     5    31    1
    32     6    32    1
    33     6    33    1
    34     8    34    1
    35     8    35    1
    36     9    36    1
    37     9    37    1
    38    11    38    1
    39    11    39    1
    40    12    40    1
    41    12    41    1
    42    14    42    1
    43    16    43    1
    44    16    44    1
    45    17    45    1
    46    17    46    1
    47    18    47    1
    48    18    48    1
    49    19    49    1
    50    19    50    1
    51    20    51    1
    52    20    52    1
    53    21    53    1
