@<TRIPOS>MOLECULE
*****
 42 41 0 0 0
SMALL
GASTEIGER

@<TRIPOS>ATOM
      1 C           0.9311    0.0206    0.0695 C.3     1  UNL1        0.0365
      2 O           2.3511    0.0206    0.0695 O.3     1  UNL1       -0.3807
      3 C           2.8244    0.1895   -1.2586 C.3     1  UNL1        0.0706
      4 C           4.3444    0.1895   -1.2586 C.3     1  UNL1        0.0711
      5 O           4.8177    0.3584   -2.5867 O.3     1  UNL1       -0.3752
      6 C           6.2377    0.3584   -2.5867 C.3     1  UNL1        0.0711
      7 C           6.7444    0.5392   -4.0084 C.3     1  UNL1        0.0711
      8 O           8.1644    0.5392   -4.0084 O.3     1  UNL1       -0.3752
      9 C           8.6377    0.7081   -5.3364 C.3     1  UNL1        0.0711
     10 C          10.1577    0.7081   -5.3364 C.3     1  UNL1        0.0711
     11 O          10.6310    0.8770   -6.6645 O.3     1  UNL1       -0.3752
     12 C          12.0510    0.8770   -6.6645 C.3     1  UNL1        0.0711
     13 C          12.5577    1.0578   -8.0862 C.3     1  UNL1        0.0710
     14 O          13.9777    1.0578   -8.0862 O.3     1  UNL1       -0.3771
     15 C          14.4510    1.2267   -9.4143 C.3     1  UNL1        0.0542
     16 C          15.9710    1.2267   -9.4143 C.3     1  UNL1        0.0262
     17 C          16.4777    1.4075  -10.8359 C.2     1  UNL1        0.1225
     18 O          17.7272    1.4368  -11.0663 O.2     1  UNL1       -0.3010
     19 H           0.5744   -0.1067    1.0702 H       1  UNL1        0.0524
     20 H           0.5744   -0.7825   -0.5411 H       1  UNL1        0.0524
     21 H           0.5744    0.9509   -0.3207 H       1  UNL1        0.0524
     22 H           2.4677    1.1198   -1.6488 H       1  UNL1        0.0582
     23 H           2.4677   -0.6136   -1.8692 H       1  UNL1        0.0582
     24 H           4.7010   -0.7408   -0.8685 H       1  UNL1        0.0583
     25 H           4.7010    0.9925   -0.6480 H       1  UNL1        0.0583
     26 H           6.5944   -0.5719   -2.1966 H       1  UNL1        0.0583
     27 H           6.5944    1.1614   -1.9761 H       1  UNL1        0.0583
     28 H           6.3877    1.4695   -4.3985 H       1  UNL1        0.0583
     29 H           6.3877   -0.2638   -4.6190 H       1  UNL1        0.0583
     30 H           8.2810    1.6384   -5.7266 H       1  UNL1        0.0583
     31 H           8.2810   -0.0949   -5.9470 H       1  UNL1        0.0583
     32 H          10.5144   -0.2222   -4.9463 H       1  UNL1        0.0583
     33 H          10.5144    1.5111   -4.7259 H       1  UNL1        0.0583
     34 H          12.4077   -0.0533   -6.2744 H       1  UNL1        0.0583
     35 H          12.4077    1.6800   -6.0539 H       1  UNL1        0.0583
     36 H          12.2010    1.9881   -8.4763 H       1  UNL1        0.0583
     37 H          12.2010    0.2548   -8.6968 H       1  UNL1        0.0583
     38 H          14.0943    2.1570   -9.8044 H       1  UNL1        0.0564
     39 H          14.0943    0.4237  -10.0249 H       1  UNL1        0.0564
     40 H          16.3277    0.2964   -9.0241 H       1  UNL1        0.0361
     41 H          16.3277    2.0297   -8.8037 H       1  UNL1        0.0361
     42 H          15.8070    1.5065  -11.6140 H       1  UNL1        0.1027
@<TRIPOS>BOND
     1     1     2    1
     2     2     3    1
     3     3     4    1
     4     4     5    1
     5     5     6    1
     6     6     7    1
     7     7     8    1
     8     8     9    1
     9     9    10    1
    10    10    11    1
    11    11    12    1
    12    12    13    1
    13    13    14    1
    14    14    15    1
    15    15    16    1
    16    16    17    1
    17    17    18    2
    18     1    19    1
    19     1    20    1
    20     1    21    1
    21     3    22    1
    22     3    23    1
    23     4    24    1
    24     4    25    1
    25     6    26    1
    26     6    27    1
    27     7    28    1
    28     7    29    1
    29     9    30    1
    30     9    31    1
    31    10    32    1
    32    10    33    1
    33    12    34    1
    34    12    35    1
    35    13    36    1
    36    13    37    1
    37    15    38    1
    38    15    39    1
    39    16    40    1
    40    16    41    1
    41    17    42    1
