@<TRIPOS>MOLECULE
*****
 29 28 0 0 0
SMALL
GASTEIGER

@<TRIPOS>ATOM
      1 C           1.0859    0.0509    0.0054 C.3     1  UNL1        0.0121
      2 C           2.6059    0.0509    0.0054 C.2     1  UNL1        0.2099
      3 O           3.2413   -0.5988   -0.8830 O.2     1  UNL1       -0.2761
      4 N           3.3409    0.8024    1.0330 N.am    1  UNL1       -0.3155
      5 C           4.8109    0.8024    1.0330 C.3     1  UNL1        0.0116
      6 C           5.3175    1.6484    2.1897 C.3     1  UNL1       -0.0360
      7 C           6.8375    1.6484    2.1897 C.3     1  UNL1       -0.0360
      8 C           7.3442    2.4943    3.3465 C.3     1  UNL1        0.0117
      9 N           8.8142    2.4943    3.3465 N.am    1  UNL1       -0.3134
     10 C           9.5492    3.2458    4.3741 C.2     1  UNL1        0.2385
     11 O           8.9138    3.8955    5.2625 O.2     1  UNL1       -0.2733
     12 C          11.0692    3.2458    4.3741 C.3     1  UNL1        0.1202
     13 O          11.5425    4.0361    5.4547 O.3     1  UNL1       -0.3858
     14 H           0.7292   -0.5446   -0.8089 H       1  UNL1        0.0322
     15 H           0.7292    1.0539   -0.1032 H       1  UNL1        0.0322
     16 H           0.7292   -0.3565    0.9283 H       1  UNL1        0.0322
     17 H           2.8486    1.3057    1.7212 H       1  UNL1        0.1487
     18 H           5.1676    1.2099    0.1101 H       1  UNL1        0.0462
     19 H           5.1676   -0.2005    1.1416 H       1  UNL1        0.0462
     20 H           4.9609    1.2409    3.1126 H       1  UNL1        0.0281
     21 H           4.9609    2.6513    2.0812 H       1  UNL1        0.0281
     22 H           7.1942    2.0558    1.2669 H       1  UNL1        0.0281
     23 H           7.1942    0.6454    2.2983 H       1  UNL1        0.0281
     24 H           6.9875    2.0869    4.2693 H       1  UNL1        0.0462
     25 H           6.9875    3.4973    3.2379 H       1  UNL1        0.0462
     26 H           9.3065    1.9910    2.6583 H       1  UNL1        0.1487
     27 H          11.4259    3.6533    3.4512 H       1  UNL1        0.0654
     28 H          11.4259    2.2429    4.4826 H       1  UNL1        0.0654
     29 H          11.2192    4.9453    5.3563 H       1  UNL1        0.2100
@<TRIPOS>BOND
     1     1     2    1
     2     2     3    2
     3     2     4   am
     4     4     5    1
     5     5     6    1
     6     6     7    1
     7     7     8    1
     8     8     9    1
     9     9    10   am
    10    10    11    2
    11    10    12    1
    12    12    13    1
    13     1    14    1
    14     1    15    1
    15     1    16    1
    16     4    17    1
    17     5    18    1
    18     5    19    1
    19     6    20    1
    20     6    21    1
    21     7    22    1
    22     7    23    1
    23     8    24    1
    24     8    25    1
    25     9    26    1
    26    12    27    1
    27    12    28    1
    28    13    29    1
