@<TRIPOS>MOLECULE
*****
 33 32 0 0 0
SMALL
GASTEIGER

@<TRIPOS>ATOM
      1 N           0.9034    0.0250    0.0068 N.3     1  UNL1       -0.3279
      2 C           2.3734    0.0250    0.0068 C.3     1  UNL1        0.0166
      3 C           2.8801   -1.3215   -0.4838 C.3     1  UNL1        0.0600
      4 O           4.3001   -1.3215   -0.4838 O.3     1  UNL1       -0.3763
      5 C           4.7734   -2.5794   -0.9422 C.3     1  UNL1        0.0711
      6 C           6.2934   -2.5794   -0.9422 C.3     1  UNL1        0.0711
      7 O           6.7667   -3.8373   -1.4006 O.3     1  UNL1       -0.3752
      8 C           8.1867   -3.8373   -1.4006 C.3     1  UNL1        0.0711
      9 C           8.6934   -5.1837   -1.8912 C.3     1  UNL1        0.0710
     10 O          10.1134   -5.1837   -1.8912 O.3     1  UNL1       -0.3771
     11 C          10.5867   -6.4416   -2.3496 C.3     1  UNL1        0.0542
     12 C          12.1067   -6.4416   -2.3496 C.3     1  UNL1        0.0262
     13 C          12.6134   -7.7881   -2.8402 C.2     1  UNL1        0.1225
     14 O          13.8629   -8.0063   -2.9197 O.2     1  UNL1       -0.3010
     15 H           0.5634    0.9285    0.3360 H       1  UNL1        0.1183
     16 H           0.5634   -0.7120    0.6247 H       1  UNL1        0.1183
     17 H           2.7301    0.1998    1.0003 H       1  UNL1        0.0444
     18 H           2.7301    0.7980   -0.6414 H       1  UNL1        0.0444
     19 H           2.5234   -1.4963   -1.4774 H       1  UNL1        0.0572
     20 H           2.5234   -2.0945    0.1643 H       1  UNL1        0.0572
     21 H           4.4167   -2.7542   -1.9357 H       1  UNL1        0.0583
     22 H           4.4167   -3.3524   -0.2940 H       1  UNL1        0.0583
     23 H           6.6501   -2.4046    0.0513 H       1  UNL1        0.0583
     24 H           6.6501   -1.8064   -1.5904 H       1  UNL1        0.0583
     25 H           8.5434   -3.6625   -0.4070 H       1  UNL1        0.0583
     26 H           8.5434   -3.0642   -2.0487 H       1  UNL1        0.0583
     27 H           8.3367   -5.3585   -2.8848 H       1  UNL1        0.0583
     28 H           8.3367   -5.9568   -1.2431 H       1  UNL1        0.0583
     29 H          10.2300   -6.6164   -3.3431 H       1  UNL1        0.0564
     30 H          10.2300   -7.2147   -1.7014 H       1  UNL1        0.0564
     31 H          12.4634   -6.2668   -1.3560 H       1  UNL1        0.0361
     32 H          12.4634   -5.6686   -2.9977 H       1  UNL1        0.0361
     33 H          11.9427   -8.5251   -3.1088 H       1  UNL1        0.1027
@<TRIPOS>BOND
     1     1     2    1
     2     2     3    1
     3     3     4    1
     4     4     5    1
     5     5     6    1
     6     6     7    1
     7     7     8    1
     8     8     9    1
     9     9    10    1
    10    10    11    1
    11    11    12    1
    12    12    13    1
    13    13    14    2
    14     1    15    1
    15     1    16    1
    16     2    17    1
    17     2    18    1
    18     3    19    1
    19     3    20    1
    20     5    21    1
    21     5    22    1
    22     6    23    1
    23     6    24    1
    24     8    25    1
    25     8    26    1
    26     9    27    1
    27     9    28    1
    28    11    29    1
    29    11    30    1
    30    12    31    1
    31    12    32    1
    32    13    33    1
