@<TRIPOS>MOLECULE
*****
 41 41 0 0 0
SMALL
GASTEIGER

@<TRIPOS>ATOM
      1 C           1.0329   -0.0600    0.0729 C.3     1  UNL1       -0.0416
      2 C           2.5529   -0.0600    0.0729 C.3     1  UNL1        0.0449
      3 O           3.0263    1.2400   -0.2470 O.3     1  UNL1       -0.3778
      4 C           4.4463    1.2400   -0.2470 C.3     1  UNL1        0.0710
      5 C           4.9529    2.6316   -0.5894 C.3     1  UNL1        0.0711
      6 O           6.3729    2.6316   -0.5894 O.3     1  UNL1       -0.3757
      7 C           6.8463    3.9316   -0.9093 C.3     1  UNL1        0.0673
      8 C           8.3663    3.9316   -0.9093 C.3     1  UNL1        0.0665
      9 N           8.8563    5.2774   -1.2405 N.ar    1  UNL1       -0.2492
     10 C          10.2256    5.5245   -1.3013 C.ar    1  UNL1        0.0487
     11 C          10.7057    6.8430   -1.6258 C.ar    1  UNL1        0.0829
     12 C           9.7179    7.9649   -1.9018 C.3     1  UNL1       -0.0067
     13 C           8.2995    7.4345   -1.7713 C.3     1  UNL1       -0.0393
     14 C           7.3117    8.5564   -2.0474 C.3     1  UNL1        0.0241
     15 C           5.8932    8.0260   -1.9169 C.2     1  UNL1        0.2105
     16 N           5.6647    6.6160   -1.5699 N.am    1  UNL1       -0.3293
     17 O           4.9047    8.8017   -2.1078 O.2     1  UNL1       -0.2760
     18 N          12.0751    7.0902   -1.6866 N.ar    1  UNL1       -0.1345
     19 N           7.9819    6.2704   -1.4849 N.ar    1  UNL1       -0.0654
     20 H           0.6763   -1.0396    0.3140 H       1  UNL1        0.0252
     21 H           0.6763    0.2210   -0.8960 H       1  UNL1        0.0252
     22 H           0.6763    0.6386    0.8007 H       1  UNL1        0.0252
     23 H           2.9096   -0.7585   -0.6549 H       1  UNL1        0.0557
     24 H           2.9096   -0.3410    1.0418 H       1  UNL1        0.0557
     25 H           4.8029    0.5415   -0.9748 H       1  UNL1        0.0583
     26 H           4.8029    0.9590    0.7219 H       1  UNL1        0.0583
     27 H           4.5963    3.3301    0.1384 H       1  UNL1        0.0583
     28 H           4.5963    2.9126   -1.5583 H       1  UNL1        0.0583
     29 H           6.4896    4.6301   -0.1815 H       1  UNL1        0.0578
     30 H           6.4896    4.2126   -1.8782 H       1  UNL1        0.0578
     31 H           8.7229    3.2330   -1.6371 H       1  UNL1        0.0532
     32 H           8.7229    3.6505    0.0595 H       1  UNL1        0.0532
     33 H          10.8963    4.7628   -1.1139 H       1  UNL1        0.0845
     34 H           9.8696    8.3376   -2.8933 H       1  UNL1        0.0329
     35 H           9.8696    8.7551   -1.1966 H       1  UNL1        0.0329
     36 H           8.1478    7.0618   -0.7799 H       1  UNL1        0.0273
     37 H           8.1478    6.6442   -2.4766 H       1  UNL1        0.0273
     38 H           7.4633    8.9291   -3.0388 H       1  UNL1        0.0358
     39 H           7.4633    9.3467   -1.3421 H       1  UNL1        0.0358
     40 H           6.4305    6.0151   -1.4220 H       1  UNL1        0.1449
     41 H           4.7460    6.2725   -1.4854 H       1  UNL1        0.1449
@<TRIPOS>BOND
     1     1     2    1
     2     2     3    1
     3     3     4    1
     4     4     5    1
     5     5     6    1
     6     6     7    1
     7     7     8    1
     8     8     9    1
     9     9    10   ar
    10    10    11   ar
    11    11    12    1
    12    12    13    1
    13    13    14    1
    14    14    15    1
    15    15    16   am
    16    15    17    2
    17    11    18   ar
    18    18    19   ar
    19     9    19   ar
    20     1    20    1
    21     1    21    1
    22     1    22    1
    23     2    23    1
    24     2    24    1
    25     4    25    1
    26     4    26    1
    27     5    27    1
    28     5    28    1
    29     7    29    1
    30     7    30    1
    31     8    31    1
    32     8    32    1
    33    10    33    1
    34    12    34    1
    35    12    35    1
    36    13    36    1
    37    13    37    1
    38    14    38    1
    39    14    39    1
    40    16    40    1
    41    16    41    1
