@<TRIPOS>MOLECULE
*****
 16 15 0 0 0
SMALL
GASTEIGER

@<TRIPOS>ATOM
      1 C           0.9325   -0.0599   -0.0431 C.1     1  UNL1       -0.1192
      2 C           2.2363   -0.0599   -0.0431 C.1     1  UNL1       -0.1056
      3 C           3.7563   -0.0599   -0.0431 C.3     1  UNL1        0.0089
      4 C           4.2630   -0.6781   -1.3360 C.3     1  UNL1       -0.0424
      5 C           5.7830   -0.6781   -1.3360 C.3     1  UNL1       -0.0551
      6 C           6.2897   -1.2963   -2.6288 C.3     1  UNL1       -0.0652
      7 H          -0.0615   -0.0599   -0.0431 H       1  UNL1        0.1228
      8 H           4.1130   -0.6304    0.7889 H       1  UNL1        0.0397
      9 H           4.1130    0.9459    0.0351 H       1  UNL1        0.0397
     10 H           3.9063   -0.1075   -2.1679 H       1  UNL1        0.0274
     11 H           3.9063   -1.6839   -1.4141 H       1  UNL1        0.0274
     12 H           6.1397   -1.2487   -0.5040 H       1  UNL1        0.0263
     13 H           6.1397    0.3277   -1.2578 H       1  UNL1        0.0263
     14 H           5.9330   -2.3021   -2.7070 H       1  UNL1        0.0230
     15 H           7.3597   -1.2963   -2.6288 H       1  UNL1        0.0230
     16 H           5.9330   -0.7257   -3.4608 H       1  UNL1        0.0230
@<TRIPOS>BOND
     1     1     2    3
     2     2     3    1
     3     3     4    1
     4     4     5    1
     5     5     6    1
     6     1     7    1
     7     3     8    1
     8     3     9    1
     9     4    10    1
    10     4    11    1
    11     5    12    1
    12     5    13    1
    13     6    14    1
    14     6    15    1
    15     6    16    1
