@<TRIPOS>MOLECULE
*****
 17 16 0 0 0
SMALL
GASTEIGER

@<TRIPOS>ATOM
      1 O           0.9513    0.0843   -0.0228 O.3     1  UNL1       -0.3927
      2 C           2.3713    0.0843   -0.0228 C.3     1  UNL1        0.0676
      3 C           2.8779    0.6573   -1.3364 C.3     1  UNL1        0.0708
      4 O           4.2979    0.6573   -1.3364 O.3     1  UNL1       -0.3753
      5 C           4.7713    1.1926   -2.5635 C.3     1  UNL1        0.0708
      6 C           6.2913    1.1926   -2.5635 C.3     1  UNL1        0.0676
      7 O           6.7646    1.7279   -3.7906 O.3     1  UNL1       -0.3927
      8 H           0.6280   -0.2814    0.8154 H       1  UNL1        0.2095
      9 H           2.7280   -0.9182    0.0902 H       1  UNL1        0.0580
     10 H           2.7280    0.6834    0.7888 H       1  UNL1        0.0580
     11 H           2.5213    1.6598   -1.4493 H       1  UNL1        0.0583
     12 H           2.5213    0.0582   -2.1480 H       1  UNL1        0.0583
     13 H           4.4146    2.1951   -2.6765 H       1  UNL1        0.0583
     14 H           4.4146    0.5935   -3.3751 H       1  UNL1        0.0583
     15 H           6.6479    0.1902   -2.4505 H       1  UNL1        0.0580
     16 H           6.6479    1.7917   -1.7518 H       1  UNL1        0.0580
     17 H           6.4413    1.1848   -4.5264 H       1  UNL1        0.2095
@<TRIPOS>BOND
     1     1     2    1
     2     2     3    1
     3     3     4    1
     4     4     5    1
     5     5     6    1
     6     6     7    1
     7     1     8    1
     8     2     9    1
     9     2    10    1
    10     3    11    1
    11     3    12    1
    12     5    13    1
    13     5    14    1
    14     6    15    1
    15     6    16    1
    16     7    17    1
