@<TRIPOS>MOLECULE
*****
 41 40 0 0 0
SMALL
GASTEIGER

@<TRIPOS>ATOM
      1 C           0.9627   -0.0242    0.0896 C.3     1  UNL1       -0.0120
      2 N           2.4327   -0.0242    0.0896 N.3     1  UNL1       -0.2967
      3 C           2.9227   -0.6455    1.3284 C.3     1  UNL1        0.0008
      4 C           2.4160    0.1426    2.5253 C.3     1  UNL1       -0.0245
      5 C           2.9227   -0.4999    3.8063 C.3     1  UNL1        0.0128
      6 N           2.4327    0.2622    4.9638 N.am    1  UNL1       -0.3142
      7 C           2.7878   -0.1608    6.3261 C.2     1  UNL1        0.2267
      8 O           3.5185   -1.1855    6.5031 O.2     1  UNL1       -0.2744
      9 C           2.2811    0.6273    7.5230 C.3     1  UNL1        0.0707
     10 N           2.7711    0.0059    8.7618 N.3     1  UNL1       -0.3225
     11 C           2.9227   -0.7863   -1.0680 C.3     1  UNL1        0.0358
     12 C           2.4160   -2.2169   -0.9839 C.3     1  UNL1       -0.0432
     13 C           2.4160   -0.1438   -2.3489 C.3     1  UNL1       -0.0432
     14 C           4.4427   -0.7863   -1.0680 C.2     1  UNL1       -0.0439
     15 C           5.1229   -1.4342   -2.0520 C.2     1  UNL1        0.0887
     16 C           4.3629   -2.1582   -3.1514 C.1     1  UNL1        0.1021
     17 N           3.7324   -2.7587   -4.0635 N.1     1  UNL1       -0.1908
     18 C           6.6429   -1.4342   -2.0520 C.2     1  UNL1        0.1601
     19 O           7.2783   -2.0395   -2.9712 O.2     1  UNL1       -0.2950
     20 H           0.6060    0.5306    0.9321 H       1  UNL1        0.0391
     21 H           0.6060   -1.0312    0.1487 H       1  UNL1        0.0391
     22 H           0.6060    0.4281   -0.8122 H       1  UNL1        0.0391
     23 H           3.9927   -0.6455    1.3284 H       1  UNL1        0.0427
     24 H           2.5660   -1.6526    1.3876 H       1  UNL1        0.0427
     25 H           1.3460    0.1426    2.5253 H       1  UNL1        0.0293
     26 H           2.7727    1.1496    2.4661 H       1  UNL1        0.0293
     27 H           3.9927   -0.4999    3.8063 H       1  UNL1        0.0462
     28 H           2.5660   -1.5070    3.8654 H       1  UNL1        0.0462
     29 H           1.8667    1.0560    4.8267 H       1  UNL1        0.1487
     30 H           1.2111    0.6273    7.5230 H       1  UNL1        0.0518
     31 H           2.6378    1.6344    7.4638 H       1  UNL1        0.0518
     32 H           2.4311   -0.9541    8.8182 H       1  UNL1        0.1186
     33 H           2.4311    0.5348    9.5650 H       1  UNL1        0.1186
     34 H           1.3460   -2.2169   -0.9839 H       1  UNL1        0.0250
     35 H           2.7727   -2.6692   -0.0822 H       1  UNL1        0.0250
     36 H           2.7727   -2.7717   -1.8265 H       1  UNL1        0.0250
     37 H           1.3460   -0.1438   -2.3489 H       1  UNL1        0.0250
     38 H           2.7727   -0.6986   -3.1915 H       1  UNL1        0.0250
     39 H           2.7727    0.8632   -2.4081 H       1  UNL1        0.0250
     40 H           4.9587   -0.2948   -0.3215 H       1  UNL1        0.0604
     41 H           7.1589   -0.9427   -1.3055 H       1  UNL1        0.1089
@<TRIPOS>BOND
     1     1     2    1
     2     2     3    1
     3     3     4    1
     4     4     5    1
     5     5     6    1
     6     6     7   am
     7     7     8    2
     8     7     9    1
     9     9    10    1
    10     2    11    1
    11    11    12    1
    12    11    13    1
    13    11    14    1
    14    14    15    2
    15    15    16    1
    16    16    17    3
    17    15    18    1
    18    18    19    2
    19     1    20    1
    20     1    21    1
    21     1    22    1
    22     3    23    1
    23     3    24    1
    24     4    25    1
    25     4    26    1
    26     5    27    1
    27     5    28    1
    28     6    29    1
    29     9    30    1
    30     9    31    1
    31    10    32    1
    32    10    33    1
    33    12    34    1
    34    12    35    1
    35    12    36    1
    36    13    37    1
    37    13    38    1
    38    13    39    1
    39    14    40    1
    40    18    41    1
