@<TRIPOS>MOLECULE
*****
 21 20 0 0 0
SMALL
GASTEIGER

@<TRIPOS>ATOM
      1 C           1.0604    0.0311   -0.0734 C.3     1  UNL1       -0.0653
      2 C           2.5804    0.0311   -0.0734 C.3     1  UNL1       -0.0558
      3 C           3.0871    1.0810    0.9020 C.3     1  UNL1       -0.0512
      4 C           4.6071    1.0810    0.9020 C.3     1  UNL1       -0.0295
      5 C           5.1137    2.1309    1.8774 C.3     1  UNL1        0.0473
      6 O           6.5337    2.1309    1.8774 O.3     1  UNL1       -0.3830
      7 C           7.0071    3.1117    2.7886 C.3     1  UNL1        0.0364
      8 H           0.7038   -0.7080   -0.7600 H       1  UNL1        0.0230
      9 H           0.7038    0.9953   -0.3701 H       1  UNL1        0.0230
     10 H           0.7038   -0.1940    0.9100 H       1  UNL1        0.0230
     11 H           2.9371    0.2562   -1.0567 H       1  UNL1        0.0263
     12 H           2.9371   -0.9331    0.2234 H       1  UNL1        0.0263
     13 H           2.7304    0.8559    1.8854 H       1  UNL1        0.0266
     14 H           2.7304    2.0452    0.6053 H       1  UNL1        0.0266
     15 H           4.9638    1.3061   -0.0813 H       1  UNL1        0.0287
     16 H           4.9638    0.1168    1.1988 H       1  UNL1        0.0287
     17 H           4.7571    1.9058    2.8608 H       1  UNL1        0.0560
     18 H           4.7571    3.0951    1.5807 H       1  UNL1        0.0560
     19 H           8.0771    3.1117    2.7886 H       1  UNL1        0.0523
     20 H           6.6504    2.8866    3.7720 H       1  UNL1        0.0523
     21 H           6.6504    4.0759    2.4919 H       1  UNL1        0.0523
@<TRIPOS>BOND
     1     1     2    1
     2     2     3    1
     3     3     4    1
     4     4     5    1
     5     5     6    1
     6     6     7    1
     7     1     8    1
     8     1     9    1
     9     1    10    1
    10     2    11    1
    11     2    12    1
    12     3    13    1
    13     3    14    1
    14     4    15    1
    15     4    16    1
    16     5    17    1
    17     5    18    1
    18     7    19    1
    19     7    20    1
    20     7    21    1
