@<TRIPOS>MOLECULE
*****
 24 23 0 0 0
SMALL
GASTEIGER

@<TRIPOS>ATOM
      1 C           0.9856    0.0558   -0.0817 C.3     1  UNL1       -0.0416
      2 C           2.5056    0.0558   -0.0817 C.3     1  UNL1        0.0449
      3 O           2.9789    0.2925    1.2360 O.3     1  UNL1       -0.3778
      4 C           4.3989    0.2925    1.2360 C.3     1  UNL1        0.0710
      5 C           4.9056    0.5459    2.6465 C.3     1  UNL1        0.0711
      6 O           6.3256    0.5459    2.6465 O.3     1  UNL1       -0.3763
      7 C           6.7989    0.7827    3.9642 C.3     1  UNL1        0.0600
      8 C           8.3189    0.7827    3.9642 C.3     1  UNL1        0.0166
      9 N           8.8089    1.0277    5.3283 N.3     1  UNL1       -0.3279
     10 H           0.6289   -0.1225   -1.0746 H       1  UNL1        0.0252
     11 H           0.6289    1.0049    0.2603 H       1  UNL1        0.0252
     12 H           0.6289   -0.7149    0.5692 H       1  UNL1        0.0252
     13 H           2.8623    0.8265   -0.7326 H       1  UNL1        0.0557
     14 H           2.8623   -0.8932   -0.4237 H       1  UNL1        0.0557
     15 H           4.7556    1.0633    0.5851 H       1  UNL1        0.0583
     16 H           4.7556   -0.6565    0.8940 H       1  UNL1        0.0583
     17 H           4.5489   -0.2248    3.2974 H       1  UNL1        0.0583
     18 H           4.5489    1.4950    2.9885 H       1  UNL1        0.0583
     19 H           6.4422    0.0119    4.6151 H       1  UNL1        0.0572
     20 H           6.4422    1.7317    4.3062 H       1  UNL1        0.0572
     21 H           8.6756    1.5534    3.3133 H       1  UNL1        0.0444
     22 H           8.6756   -0.1664    3.6222 H       1  UNL1        0.0444
     23 H           8.4689    1.9324    5.6543 H       1  UNL1        0.1183
     24 H           9.8289    1.0277    5.3283 H       1  UNL1        0.1183
@<TRIPOS>BOND
     1     1     2    1
     2     2     3    1
     3     3     4    1
     4     4     5    1
     5     5     6    1
     6     6     7    1
     7     7     8    1
     8     8     9    1
     9     1    10    1
    10     1    11    1
    11     1    12    1
    12     2    13    1
    13     2    14    1
    14     4    15    1
    15     4    16    1
    16     5    17    1
    17     5    18    1
    18     7    19    1
    19     7    20    1
    20     8    21    1
    21     8    22    1
    22     9    23    1
    23     9    24    1
