@<TRIPOS>MOLECULE
*****
 46 48 0 0 0
SMALL
GASTEIGER

@<TRIPOS>ATOM
      1 O           1.0502   -0.0659   -0.0560 O.2     1  UNL1       -0.2753
      2 C           2.3211   -0.0659   -0.0560 C.2     1  UNL1        0.2188
      3 C           3.0811    0.2188   -1.3413 C.3     1  UNL1        0.0381
      4 C           2.0934    0.4686   -2.4692 C.3     1  UNL1       -0.0293
      5 C           2.8534    0.7532   -3.7545 C.3     1  UNL1       -0.0034
      6 N           1.8981    0.9948   -4.8453 N.3     1  UNL1       -0.3159
      7 C           2.6331    1.2701   -6.0883 C.3     1  UNL1       -0.0034
      8 C           3.9550   -0.9755   -1.6882 C.3     1  UNL1       -0.0293
      9 N           3.0561   -0.3411    1.1869 N.am    1  UNL1       -0.2988
     10 C           4.5261   -0.3411    1.1869 C.3     1  UNL1        0.0275
     11 C           5.0328   -0.6510    2.5861 C.3     1  UNL1        0.0151
     12 N           6.5028   -0.6510    2.5861 N.3     1  UNL1       -0.2952
     13 C           6.9928    0.6707    2.1690 C.3     1  UNL1        0.0241
     14 C           6.4861    0.9806    0.7699 C.ar    1  UNL1       -0.0334
     15 C           6.8341    2.2269    0.1376 C.ar    1  UNL1       -0.0573
     16 C           6.3540    2.5205   -1.1881 C.ar    1  UNL1       -0.0615
     17 C           6.7019    3.7668   -1.8204 C.ar    1  UNL1       -0.0617
     18 C           6.2218    4.0604   -3.1461 C.ar    1  UNL1       -0.0615
     19 C           5.6581    0.0278    0.0764 C.ar    1  UNL1       -0.0573
     20 C           6.9928   -0.9507    3.9392 C.3     1  UNL1        0.0151
     21 C           2.3211   -0.6164    2.4299 C.3     1  UNL1        0.0275
     22 H           3.6963    1.0840   -1.2077 H       1  UNL1        0.0395
     23 H           1.4782    1.3093   -2.2250 H       1  UNL1        0.0285
     24 H           1.4782   -0.3967   -2.6028 H       1  UNL1        0.0285
     25 H           3.4685   -0.0875   -3.9987 H       1  UNL1        0.0424
     26 H           3.4685    1.6184   -3.6209 H       1  UNL1        0.0424
     27 H           1.3117    1.7962   -4.6125 H       1  UNL1        0.1219
     28 H           2.9651    2.2547   -6.3436 H       1  UNL1        0.0424
     29 H           2.5840    1.0602   -7.1363 H       1  UNL1        0.0424
     30 H           4.9850   -0.9387   -1.4006 H       1  UNL1        0.0285
     31 H           3.8501   -1.9986   -1.3930 H       1  UNL1        0.0285
     32 H           4.8828    0.6209    0.8833 H       1  UNL1        0.0477
     33 H           4.8828   -1.0850    0.5055 H       1  UNL1        0.0477
     34 H           4.6761   -1.6130    2.8896 H       1  UNL1        0.0442
     35 H           4.6761    0.0929    3.2675 H       1  UNL1        0.0442
     36 H           8.0628    0.6707    2.1690 H       1  UNL1        0.0476
     37 H           6.6361    1.4146    2.8504 H       1  UNL1        0.0476
     38 H           7.4274    2.9096    0.6345 H       1  UNL1        0.0621
     39 H           5.7607    1.8378   -1.6850 H       1  UNL1        0.0618
     40 H           7.2952    4.4495   -1.3235 H       1  UNL1        0.0618
     41 H           6.0958    4.6102   -4.0103 H       1  UNL1        0.0618
     42 H           5.2168   -0.9007    0.1662 H       1  UNL1        0.0621
     43 H           7.4340   -0.1912    4.5503 H       1  UNL1        0.0442
     44 H           7.6277   -1.6667    4.4179 H       1  UNL1        0.0442
     45 H           1.7438    0.1891    2.8334 H       1  UNL1        0.0477
     46 H           1.5550   -1.3508    2.5660 H       1  UNL1        0.0477
@<TRIPOS>BOND
     1     1     2    2
     2     2     3    1
     3     3     4    1
     4     4     5    1
     5     5     6    1
     6     6     7    1
     7     7     8    1
     8     3     8    1
     9     2     9   am
    10     9    10    1
    11    10    11    1
    12    11    12    1
    13    12    13    1
    14    13    14    1
    15    14    15   ar
    16    15    16   ar
    17    16    17   ar
    18    17    18   ar
    19    18    19   ar
    20    14    19   ar
    21    12    20    1
    22    20    21    1
    23     9    21    1
    24     3    22    1
    25     4    23    1
    26     4    24    1
    27     5    25    1
    28     5    26    1
    29     6    27    1
    30     7    28    1
    31     7    29    1
    32     8    30    1
    33     8    31    1
    34    10    32    1
    35    10    33    1
    36    11    34    1
    37    11    35    1
    38    13    36    1
    39    13    37    1
    40    15    38    1
    41    16    39    1
    42    17    40    1
    43    18    41    1
    44    19    42    1
    45    20    43    1
    46    20    44    1
    47    21    45    1
    48    21    46    1
