@<TRIPOS>MOLECULE
*****
 37 38 0 0 0
SMALL
GASTEIGER

@<TRIPOS>ATOM
      1 C           1.0750   -0.0327    0.0575 C.3     1  UNL1       -0.0128
      2 N           2.5450   -0.0327    0.0575 N.3     1  UNL1       -0.3053
      3 C           3.0350    0.1519   -1.3161 C.3     1  UNL1       -0.0128
      4 C           3.0350    1.0646    0.9042 C.3     1  UNL1        0.0127
      5 C           4.5550    1.0646    0.9042 C.3     1  UNL1       -0.0214
      6 C           5.0617    2.1992    1.7796 C.3     1  UNL1        0.0164
      7 N           6.5317    2.1992    1.7796 N.am    1  UNL1       -0.2974
      8 C           7.2667    1.1913    1.0019 C.2     1  UNL1        0.2466
      9 O           8.5376    1.1913    1.0019 O.2     1  UNL1       -0.2700
     10 C           6.5067    0.1491    0.1978 C.ar    1  UNL1        0.0369
     11 C           7.2268   -0.8384   -0.5642 C.ar    1  UNL1       -0.0496
     12 C           6.5067   -1.8258   -1.3261 C.ar    1  UNL1       -0.0610
     13 C           7.2268   -2.8133   -2.0880 C.ar    1  UNL1       -0.0617
     14 C           6.5067   -3.8008   -2.8499 C.ar    1  UNL1       -0.0610
     15 C           5.0665    0.1491    0.1978 C.ar    1  UNL1       -0.0496
     16 C           7.2667    3.2071    2.5573 C.3     1  UNL1        0.0164
     17 C           2.5283    0.8737    2.3245 C.3     1  UNL1       -0.0214
     18 H           0.7183   -0.8313   -0.5587 H       1  UNL1        0.0391
     19 H           0.7183    0.9004   -0.3260 H       1  UNL1        0.0391
     20 H           0.7183   -0.1670    1.0573 H       1  UNL1        0.0391
     21 H           2.6783   -0.6468   -1.9323 H       1  UNL1        0.0391
     22 H           4.1050    0.1519   -1.3161 H       1  UNL1        0.0391
     23 H           2.6783    1.0850   -1.6996 H       1  UNL1        0.0391
     24 H           2.6783    1.9977    0.5206 H       1  UNL1        0.0463
     25 H           4.9117    1.1990   -0.0956 H       1  UNL1        0.0295
     26 H           4.9117    0.1316    1.2877 H       1  UNL1        0.0295
     27 H           4.7050    2.0648    2.7794 H       1  UNL1        0.0465
     28 H           4.7050    3.1322    1.3961 H       1  UNL1        0.0465
     29 H           8.2588   -0.8384   -0.5642 H       1  UNL1        0.0625
     30 H           5.4747   -1.8258   -1.3261 H       1  UNL1        0.0618
     31 H           8.2588   -2.8133   -2.0880 H       1  UNL1        0.0618
     32 H           6.3818   -4.6118   -3.4757 H       1  UNL1        0.0618
     33 H           4.2417    0.6402    0.5767 H       1  UNL1        0.0625
     34 H           7.4440    4.2006    2.2018 H       1  UNL1        0.0465
     35 H           8.1213    3.3450    3.1861 H       1  UNL1        0.0465
     36 H           1.6751    1.4415    2.6321 H       1  UNL1        0.0295
     37 H           2.1792   -0.0128    2.8114 H       1  UNL1        0.0295
@<TRIPOS>BOND
     1     1     2    1
     2     2     3    1
     3     2     4    1
     4     4     5    1
     5     5     6    1
     6     6     7    1
     7     7     8   am
     8     8     9    2
     9     8    10    1
    10    10    11   ar
    11    11    12   ar
    12    12    13   ar
    13    13    14   ar
    14    14    15   ar
    15    10    15   ar
    16     7    16    1
    17    16    17    1
    18     4    17    1
    19     1    18    1
    20     1    19    1
    21     1    20    1
    22     3    21    1
    23     3    22    1
    24     3    23    1
    25     4    24    1
    26     5    25    1
    27     5    26    1
    28     6    27    1
    29     6    28    1
    30    11    29    1
    31    12    30    1
    32    13    31    1
    33    14    32    1
    34    15    33    1
    35    16    34    1
    36    16    35    1
    37    17    36    1
    38    17    37    1
