@<TRIPOS>MOLECULE
*****
 41 40 0 0 0
SMALL
GASTEIGER

@<TRIPOS>ATOM
      1 C           1.0795    0.0253   -0.0552 C.3     1  UNL1       -0.0653
      2 C           2.5995    0.0253   -0.0552 C.3     1  UNL1       -0.0559
      3 C           3.1061    0.7950   -1.2640 C.3     1  UNL1       -0.0533
      4 C           4.6261    0.7950   -1.2640 C.3     1  UNL1       -0.0526
      5 C           5.1328    1.5647   -2.4728 C.3     1  UNL1       -0.0448
      6 C           6.6528    1.5647   -2.4728 C.3     1  UNL1        0.0241
      7 C           7.1594    2.3345   -3.6816 C.2     1  UNL1        0.2154
      8 O           6.3336    2.8533   -4.4964 O.2     1  UNL1       -0.2756
      9 N           8.6047    2.4787   -3.9082 N.am    1  UNL1       -0.3033
     10 C           9.5599    1.8786   -2.9657 C.3     1  UNL1        0.0032
     11 C           9.0947    3.2231   -5.0773 C.3     1  UNL1        0.0271
     12 C          10.6147    3.2231   -5.0773 C.3     1  UNL1        0.0141
     13 N          11.1047    3.9675   -6.2463 N.3     1  UNL1       -0.3069
     14 C          10.6147    5.3522   -6.1861 C.3     1  UNL1       -0.0130
     15 C          12.5747    3.9675   -6.2463 C.3     1  UNL1       -0.0130
     16 H           0.7228   -0.5166    0.7957 H       1  UNL1        0.0230
     17 H           0.7228   -0.4407   -0.9499 H       1  UNL1        0.0230
     18 H           0.7228    1.0331   -0.0114 H       1  UNL1        0.0230
     19 H           2.9561   -0.9826   -0.0990 H       1  UNL1        0.0263
     20 H           2.9561    0.4913    0.8395 H       1  UNL1        0.0263
     21 H           2.7494    1.8029   -1.2202 H       1  UNL1        0.0265
     22 H           2.7494    0.3290   -2.1587 H       1  UNL1        0.0265
     23 H           4.9828   -0.2128   -1.3078 H       1  UNL1        0.0265
     24 H           4.9828    1.2610   -0.3693 H       1  UNL1        0.0265
     25 H           4.7761    2.5726   -2.4290 H       1  UNL1        0.0270
     26 H           4.7761    1.0987   -3.3675 H       1  UNL1        0.0270
     27 H           7.0094    0.5569   -2.5166 H       1  UNL1        0.0358
     28 H           7.0094    2.0307   -1.5781 H       1  UNL1        0.0358
     29 H           9.0249    1.3809   -2.1841 H       1  UNL1        0.0428
     30 H          10.1751    2.6460   -2.5443 H       1  UNL1        0.0428
     31 H          10.1751    1.1721   -3.4828 H       1  UNL1        0.0428
     32 H           8.7380    4.2310   -5.0335 H       1  UNL1        0.0477
     33 H           8.7380    2.7571   -5.9720 H       1  UNL1        0.0477
     34 H          10.9714    2.2153   -5.1210 H       1  UNL1        0.0442
     35 H          10.9714    3.6891   -4.1825 H       1  UNL1        0.0442
     36 H           9.5447    5.3522   -6.1861 H       1  UNL1        0.0391
     37 H          10.9713    5.8940   -7.0371 H       1  UNL1        0.0391
     38 H          10.9713    5.8182   -5.2914 H       1  UNL1        0.0391
     39 H          12.9313    2.9597   -6.2901 H       1  UNL1        0.0391
     40 H          12.9313    4.4336   -5.3516 H       1  UNL1        0.0391
     41 H          12.9313    4.5094   -7.0972 H       1  UNL1        0.0391
@<TRIPOS>BOND
     1     1     2    1
     2     2     3    1
     3     3     4    1
     4     4     5    1
     5     5     6    1
     6     6     7    1
     7     7     8    2
     8     7     9   am
     9     9    10    1
    10     9    11    1
    11    11    12    1
    12    12    13    1
    13    13    14    1
    14    13    15    1
    15     1    16    1
    16     1    17    1
    17     1    18    1
    18     2    19    1
    19     2    20    1
    20     3    21    1
    21     3    22    1
    22     4    23    1
    23     4    24    1
    24     5    25    1
    25     5    26    1
    26     6    27    1
    27     6    28    1
    28    10    29    1
    29    10    30    1
    30    10    31    1
    31    11    32    1
    32    11    33    1
    33    12    34    1
    34    12    35    1
    35    14    36    1
    36    14    37    1
    37    14    38    1
    38    15    39    1
    39    15    40    1
    40    15    41    1
