@<TRIPOS>MOLECULE
*****
 43 43 0 0 0
SMALL
GASTEIGER

@<TRIPOS>ATOM
      1 C           0.9941   -0.0899    0.0435 C.3     1  UNL1       -0.0632
      2 C           2.5141   -0.0899    0.0435 C.3     1  UNL1       -0.0323
      3 C           3.0208   -1.1490    1.0088 C.3     1  UNL1        0.0474
      4 O           4.4408   -1.1490    1.0088 O.3     1  UNL1       -0.3798
      5 C           4.9141   -2.1385    1.9106 C.3     1  UNL1        0.0477
      6 C           6.4341   -2.1385    1.9106 C.3     1  UNL1       -0.0294
      7 C           6.9408   -3.1977    2.8759 C.3     1  UNL1       -0.0493
      8 C           8.4608   -3.1977    2.8759 C.3     1  UNL1       -0.0332
      9 C           8.9674   -4.2569    3.8412 C.3     1  UNL1        0.0432
     10 N          10.4374   -4.2569    3.8412 N.ar    1  UNL1       -0.2515
     11 C          11.1338   -5.1484    4.6537 C.ar    1  UNL1        0.0486
     12 C          12.5740   -5.1484    4.6537 C.ar    1  UNL1        0.0829
     13 C          13.3340   -4.1755    3.7670 C.3     1  UNL1       -0.0051
     14 C          12.3463   -3.3216    2.9888 C.3     1  UNL1       -0.0242
     15 C          13.1063   -2.3487    2.1021 C.3     1  UNL1        0.0446
     16 O          12.1835   -1.5510    1.3751 O.3     1  UNL1       -0.3950
     17 N          13.2705   -6.0399    5.4662 N.ar    1  UNL1       -0.1345
     18 N          11.1102   -3.3957    3.0564 N.ar    1  UNL1       -0.0655
     19 H           0.6375    0.6557   -0.6361 H       1  UNL1        0.0230
     20 H           0.6375    0.1258    1.0290 H       1  UNL1        0.0230
     21 H           0.6374   -1.0512   -0.2625 H       1  UNL1        0.0230
     22 H           2.8708    0.8714    0.3494 H       1  UNL1        0.0285
     23 H           2.8708   -0.3055   -0.9420 H       1  UNL1        0.0285
     24 H           2.6641   -2.1103    0.7028 H       1  UNL1        0.0560
     25 H           2.6641   -0.9334    1.9943 H       1  UNL1        0.0560
     26 H           4.5574   -3.0998    1.6046 H       1  UNL1        0.0560
     27 H           4.5574   -1.9229    2.8961 H       1  UNL1        0.0560
     28 H           6.7908   -1.1772    2.2165 H       1  UNL1        0.0287
     29 H           6.7908   -2.3542    0.9251 H       1  UNL1        0.0287
     30 H           6.5841   -4.1590    2.5700 H       1  UNL1        0.0267
     31 H           6.5841   -2.9820    3.8614 H       1  UNL1        0.0267
     32 H           8.8174   -2.2364    3.1819 H       1  UNL1        0.0283
     33 H           8.8174   -3.4134    1.8904 H       1  UNL1        0.0283
     34 H           8.6108   -5.2182    3.5353 H       1  UNL1        0.0509
     35 H           8.6108   -4.0412    4.8267 H       1  UNL1        0.0509
     36 H          10.6178   -5.8090    5.2558 H       1  UNL1        0.0845
     37 H          13.9492   -4.7221    3.0831 H       1  UNL1        0.0330
     38 H          13.9492   -3.5451    4.3746 H       1  UNL1        0.0330
     39 H          11.7311   -2.7750    3.6727 H       1  UNL1        0.0291
     40 H          11.7311   -3.9520    2.3813 H       1  UNL1        0.0291
     41 H          13.7215   -2.8953    1.4182 H       1  UNL1        0.0557
     42 H          13.7215   -1.7183    2.7097 H       1  UNL1        0.0557
     43 H          11.6259   -2.1224    0.8243 H       1  UNL1        0.2094
@<TRIPOS>BOND
     1     1     2    1
     2     2     3    1
     3     3     4    1
     4     4     5    1
     5     5     6    1
     6     6     7    1
     7     7     8    1
     8     8     9    1
     9     9    10    1
    10    10    11   ar
    11    11    12   ar
    12    12    13    1
    13    13    14    1
    14    14    15    1
    15    15    16    1
    16    12    17   ar
    17    17    18   ar
    18    10    18   ar
    19     1    19    1
    20     1    20    1
    21     1    21    1
    22     2    22    1
    23     2    23    1
    24     3    24    1
    25     3    25    1
    26     5    26    1
    27     5    27    1
    28     6    28    1
    29     6    29    1
    30     7    30    1
    31     7    31    1
    32     8    32    1
    33     8    33    1
    34     9    34    1
    35     9    35    1
    36    11    36    1
    37    13    37    1
    38    13    38    1
    39    14    39    1
    40    14    40    1
    41    15    41    1
    42    15    42    1
    43    16    43    1
