@<TRIPOS>MOLECULE
*****
 32 31 0 0 0
SMALL
GASTEIGER

@<TRIPOS>ATOM
      1 C           0.9314    0.0655    0.0318 C.3     1  UNL1        0.0121
      2 C           2.4514    0.0655    0.0318 C.2     1  UNL1        0.2099
      3 O           3.0869    0.1073    1.1316 O.2     1  UNL1       -0.2761
      4 N           3.1864    0.0171   -1.2404 N.am    1  UNL1       -0.3155
      5 C           4.6564    0.0171   -1.2404 C.3     1  UNL1        0.0116
      6 C           5.1631   -0.0373   -2.6724 C.3     1  UNL1       -0.0373
      7 C           6.6831   -0.0373   -2.6724 C.3     1  UNL1       -0.0502
      8 C           7.1897   -0.0918   -4.1044 C.3     1  UNL1       -0.0373
      9 C           8.7097   -0.0918   -4.1044 C.3     1  UNL1        0.0117
     10 N           9.1997   -0.1444   -5.4894 N.am    1  UNL1       -0.3134
     11 C          10.6450   -0.1546   -5.7578 C.2     1  UNL1        0.2385
     12 O          11.4708   -0.1179   -4.7925 O.2     1  UNL1       -0.2733
     13 C          11.1516   -0.2091   -7.1898 C.3     1  UNL1        0.1202
     14 O          12.5716   -0.2091   -7.1898 O.3     1  UNL1       -0.3858
     15 H           0.5747    0.1038    1.0399 H       1  UNL1        0.0322
     16 H           0.5747   -0.8267   -0.4391 H       1  UNL1        0.0322
     17 H           0.5747    0.9193   -0.5054 H       1  UNL1        0.0322
     18 H           2.6942   -0.0153   -2.0923 H       1  UNL1        0.1487
     19 H           5.0131   -0.8368   -0.7031 H       1  UNL1        0.0462
     20 H           5.0131    0.9093   -0.7695 H       1  UNL1        0.0462
     21 H           4.8064    0.8165   -3.2096 H       1  UNL1        0.0280
     22 H           4.8064   -0.9295   -3.1432 H       1  UNL1        0.0280
     23 H           7.0397   -0.8912   -2.1352 H       1  UNL1        0.0266
     24 H           7.0397    0.8548   -2.2015 H       1  UNL1        0.0266
     25 H           6.8331    0.7621   -4.6417 H       1  UNL1        0.0280
     26 H           6.8331   -0.9840   -4.5753 H       1  UNL1        0.0280
     27 H           9.0664   -0.9456   -3.5672 H       1  UNL1        0.0462
     28 H           9.0664    0.8004   -3.6336 H       1  UNL1        0.0462
     29 H           8.5600   -0.1729   -6.2371 H       1  UNL1        0.1487
     30 H          10.7950    0.6448   -7.7270 H       1  UNL1        0.0654
     31 H          10.7950   -1.1013   -7.6607 H       1  UNL1        0.0654
     32 H          12.8950    0.5997   -6.7630 H       1  UNL1        0.2100
@<TRIPOS>BOND
     1     1     2    1
     2     2     3    2
     3     2     4   am
     4     4     5    1
     5     5     6    1
     6     6     7    1
     7     7     8    1
     8     8     9    1
     9     9    10    1
    10    10    11   am
    11    11    12    2
    12    11    13    1
    13    13    14    1
    14     1    15    1
    15     1    16    1
    16     1    17    1
    17     4    18    1
    18     5    19    1
    19     5    20    1
    20     6    21    1
    21     6    22    1
    22     7    23    1
    23     7    24    1
    24     8    25    1
    25     8    26    1
    26     9    27    1
    27     9    28    1
    28    10    29    1
    29    13    30    1
    30    13    31    1
    31    14    32    1
