@<TRIPOS>MOLECULE
*****
 38 37 0 0 0
SMALL
GASTEIGER

@<TRIPOS>ATOM
      1 C           1.0249    0.0968    0.0002 C.3     1  UNL1       -0.0653
      2 C           2.5449    0.0968    0.0002 C.3     1  UNL1       -0.0559
      3 C           3.0516    0.3104    1.4173 C.3     1  UNL1       -0.0529
      4 C           4.5716    0.3104    1.4173 C.3     1  UNL1       -0.0448
      5 C           5.0782    0.5239    2.8344 C.3     1  UNL1        0.0241
      6 C           6.5982    0.5239    2.8344 C.2     1  UNL1        0.2154
      7 O           7.2337    0.3599    1.7460 O.2     1  UNL1       -0.2756
      8 N           7.3332    0.7136    4.0932 N.am    1  UNL1       -0.3033
      9 C           6.5982    0.9033    5.3521 C.3     1  UNL1        0.0032
     10 C           8.8032    0.7136    4.0932 C.3     1  UNL1        0.0271
     11 C           9.3099    0.9271    5.5103 C.3     1  UNL1        0.0141
     12 N          10.7799    0.9271    5.5103 N.3     1  UNL1       -0.3069
     13 C          11.2699    2.0107    4.6462 C.3     1  UNL1       -0.0130
     14 C          11.2699    1.1336    6.8808 C.3     1  UNL1       -0.0130
     15 H           0.6682   -0.0535   -0.9973 H       1  UNL1        0.0230
     16 H           0.6682    1.0359    0.3688 H       1  UNL1        0.0230
     17 H           0.6682   -0.6919    0.6292 H       1  UNL1        0.0230
     18 H           2.9016    0.8856   -0.6287 H       1  UNL1        0.0263
     19 H           2.9016   -0.8422   -0.3683 H       1  UNL1        0.0263
     20 H           2.6949   -0.4784    2.0463 H       1  UNL1        0.0265
     21 H           2.6949    1.2494    1.7859 H       1  UNL1        0.0265
     22 H           4.9282    1.0991    0.7884 H       1  UNL1        0.0270
     23 H           4.9282   -0.6287    1.0487 H       1  UNL1        0.0270
     24 H           4.7216   -0.2648    3.4633 H       1  UNL1        0.0358
     25 H           4.7216    1.4630    3.2030 H       1  UNL1        0.0358
     26 H           5.5462    0.8742    5.1587 H       1  UNL1        0.0428
     27 H           6.8567    1.8508    5.7767 H       1  UNL1        0.0428
     28 H           6.8567    0.1230    6.0371 H       1  UNL1        0.0428
     29 H           9.1599    1.5023    3.4643 H       1  UNL1        0.0477
     30 H           9.1599   -0.2254    3.7246 H       1  UNL1        0.0477
     31 H           8.9532    0.1384    6.1393 H       1  UNL1        0.0442
     32 H           8.9532    1.8662    5.8789 H       1  UNL1        0.0442
     33 H          10.9132    1.8604    3.6487 H       1  UNL1        0.0391
     34 H          12.3399    2.0107    4.6462 H       1  UNL1        0.0391
     35 H          10.9132    2.9498    5.0148 H       1  UNL1        0.0391
     36 H          10.9132    0.3449    7.5097 H       1  UNL1        0.0391
     37 H          10.9132    2.0727    7.2494 H       1  UNL1        0.0391
     38 H          12.3399    1.1337    6.8808 H       1  UNL1        0.0391
@<TRIPOS>BOND
     1     1     2    1
     2     2     3    1
     3     3     4    1
     4     4     5    1
     5     5     6    1
     6     6     7    2
     7     6     8   am
     8     8     9    1
     9     8    10    1
    10    10    11    1
    11    11    12    1
    12    12    13    1
    13    12    14    1
    14     1    15    1
    15     1    16    1
    16     1    17    1
    17     2    18    1
    18     2    19    1
    19     3    20    1
    20     3    21    1
    21     4    22    1
    22     4    23    1
    23     5    24    1
    24     5    25    1
    25     9    26    1
    26     9    27    1
    27     9    28    1
    28    10    29    1
    29    10    30    1
    30    11    31    1
    31    11    32    1
    32    13    33    1
    33    13    34    1
    34    13    35    1
    35    14    36    1
    36    14    37    1
    37    14    38    1
