@<TRIPOS>MOLECULE
*****
 27 26 0 0 0
SMALL
GASTEIGER

@<TRIPOS>ATOM
      1 C           1.0698   -0.0122   -0.0706 C.3     1  UNL1       -0.0653
      2 C           2.5898   -0.0122   -0.0706 C.3     1  UNL1       -0.0559
      3 C           3.0965   -0.1734    1.3534 C.3     1  UNL1       -0.0533
      4 C           4.6165   -0.1734    1.3534 C.3     1  UNL1       -0.0531
      5 C           5.1231   -0.3345    2.7774 C.3     1  UNL1       -0.0526
      6 C           6.6431   -0.3345    2.7774 C.3     1  UNL1       -0.0448
      7 C           7.1498   -0.4957    4.2014 C.3     1  UNL1        0.0237
      8 C           8.6698   -0.4957    4.2014 C.2     1  UNL1        0.2105
      9 N           9.4048   -0.3525    2.9364 N.am    1  UNL1       -0.3293
     10 O           9.3052   -0.6194    5.2950 O.2     1  UNL1       -0.2760
     11 H           0.7131    0.1012   -1.0730 H       1  UNL1        0.0230
     12 H           0.7131    0.7992    0.5289 H       1  UNL1        0.0230
     13 H           0.7131   -0.9371    0.3324 H       1  UNL1        0.0230
     14 H           2.9465    0.9126   -0.4735 H       1  UNL1        0.0263
     15 H           2.9465   -0.8236   -0.6700 H       1  UNL1        0.0263
     16 H           2.7398   -1.0982    1.7564 H       1  UNL1        0.0265
     17 H           2.7398    0.6380    1.9529 H       1  UNL1        0.0265
     18 H           4.9731    0.7515    0.9505 H       1  UNL1        0.0265
     19 H           4.9731   -0.9848    0.7540 H       1  UNL1        0.0265
     20 H           4.7665   -1.2593    3.1804 H       1  UNL1        0.0265
     21 H           4.7665    0.4769    3.3769 H       1  UNL1        0.0265
     22 H           6.9998    0.5903    2.3744 H       1  UNL1        0.0270
     23 H           6.9998   -1.1459    2.1780 H       1  UNL1        0.0270
     24 H           6.7931   -1.4205    4.6044 H       1  UNL1        0.0358
     25 H           6.7931    0.3157    4.8008 H       1  UNL1        0.0358
     26 H           8.9125   -0.2566    2.0892 H       1  UNL1        0.1449
     27 H          10.3893   -0.3525    2.9364 H       1  UNL1        0.1449
@<TRIPOS>BOND
     1     1     2    1
     2     2     3    1
     3     3     4    1
     4     4     5    1
     5     5     6    1
     6     6     7    1
     7     7     8    1
     8     8     9   am
     9     8    10    2
    10     1    11    1
    11     1    12    1
    12     1    13    1
    13     2    14    1
    14     2    15    1
    15     3    16    1
    16     3    17    1
    17     4    18    1
    18     4    19    1
    19     5    20    1
    20     5    21    1
    21     6    22    1
    22     6    23    1
    23     7    24    1
    24     7    25    1
    25     9    26    1
    26     9    27    1
