@<TRIPOS>MOLECULE
*****
 28 27 0 0 0
SMALL
GASTEIGER

@<TRIPOS>ATOM
      1 C           0.9373    0.0370   -0.0685 C.3     1  UNL1       -0.0653
      2 C           2.4573    0.0370   -0.0685 C.3     1  UNL1       -0.0559
      3 C           2.9639   -1.1456   -0.8778 C.3     1  UNL1       -0.0533
      4 C           4.4839   -1.1456   -0.8778 C.3     1  UNL1       -0.0531
      5 C           4.9906   -2.3283   -1.6872 C.3     1  UNL1       -0.0530
      6 C           6.5106   -2.3283   -1.6872 C.3     1  UNL1       -0.0519
      7 C           7.0172   -3.5109   -2.4965 C.3     1  UNL1       -0.0406
      8 C           8.5372   -3.5109   -2.4965 C.3     1  UNL1       -0.0069
      9 N           9.0272   -4.6547   -3.2792 N.3     1  UNL1       -0.3300
     10 H           0.5806    0.8696    0.5012 H       1  UNL1        0.0230
     11 H           0.5806   -0.8726    0.3676 H       1  UNL1        0.0230
     12 H           0.5806    0.1142   -1.0744 H       1  UNL1        0.0230
     13 H           2.8139   -0.0401    0.9373 H       1  UNL1        0.0263
     14 H           2.8139    0.9467   -0.5046 H       1  UNL1        0.0263
     15 H           2.6073   -1.0685   -1.8837 H       1  UNL1        0.0265
     16 H           2.6073   -2.0553   -0.4417 H       1  UNL1        0.0265
     17 H           4.8406   -1.2228    0.1280 H       1  UNL1        0.0265
     18 H           4.8406   -0.2360   -1.3140 H       1  UNL1        0.0265
     19 H           4.6339   -2.2511   -2.6930 H       1  UNL1        0.0265
     20 H           4.6339   -3.2379   -1.2510 H       1  UNL1        0.0265
     21 H           6.8673   -2.4054   -0.6813 H       1  UNL1        0.0266
     22 H           6.8673   -1.4186   -2.1233 H       1  UNL1        0.0266
     23 H           6.6606   -3.4338   -3.5024 H       1  UNL1        0.0277
     24 H           6.6606   -4.4206   -2.0604 H       1  UNL1        0.0277
     25 H           8.8939   -3.5881   -1.4907 H       1  UNL1        0.0422
     26 H           8.8939   -2.6013   -2.9326 H       1  UNL1        0.0422
     27 H           8.6872   -5.5218   -2.8635 H       1  UNL1        0.1182
     28 H          10.0472   -4.6547   -3.2792 H       1  UNL1        0.1182
@<TRIPOS>BOND
     1     1     2    1
     2     2     3    1
     3     3     4    1
     4     4     5    1
     5     5     6    1
     6     6     7    1
     7     7     8    1
     8     8     9    1
     9     1    10    1
    10     1    11    1
    11     1    12    1
    12     2    13    1
    13     2    14    1
    14     3    15    1
    15     3    16    1
    16     4    17    1
    17     4    18    1
    18     5    19    1
    19     5    20    1
    20     6    21    1
    21     6    22    1
    22     7    23    1
    23     7    24    1
    24     8    25    1
    25     8    26    1
    26     9    27    1
    27     9    28    1
