@<TRIPOS>MOLECULE
*****
 39 40 0 0 0
SMALL
GASTEIGER

@<TRIPOS>ATOM
      1 C           1.0109    0.0904   -0.0413 C.3     1  UNL1       -0.0126
      2 N           2.4809    0.0904   -0.0413 N.3     1  UNL1       -0.3024
      3 C           2.9709    0.7625   -1.2534 C.3     1  UNL1        0.0145
      4 C           4.4909    0.7625   -1.2534 C.3     1  UNL1        0.0275
      5 N           4.9809    1.4345   -2.4655 N.am    1  UNL1       -0.2980
      6 C           4.0257    1.9763   -3.4426 C.2     1  UNL1        0.2297
      7 O           4.4493    2.5573   -4.4906 O.2     1  UNL1       -0.2742
      8 C           2.5313    1.8416   -3.1997 C.3     1  UNL1        0.0759
      9 N           1.7963    2.4589   -4.3131 N.3     1  UNL1       -0.2940
     10 C           0.3510    2.3287   -4.0782 C.3     1  UNL1       -0.0006
     11 C          -0.4090    2.9670   -5.2294 C.3     1  UNL1       -0.0402
     12 C          -1.9034    2.8323   -4.9865 C.3     1  UNL1       -0.0507
     13 C          -2.6634    3.4706   -6.1377 C.3     1  UNL1       -0.0402
     14 C           2.1514    1.7830   -5.5693 C.3     1  UNL1       -0.0006
     15 C           6.4262    1.5648   -2.7004 C.3     1  UNL1        0.0275
     16 C           2.9710   -1.2953   -0.0173 C.3     1  UNL1        0.0145
     17 H           0.6543    1.0991   -0.0588 H       1  UNL1        0.0391
     18 H           0.6543   -0.3988    0.8410 H       1  UNL1        0.0391
     19 H           0.6543   -0.4291   -0.9061 H       1  UNL1        0.0391
     20 H           2.6143    1.7711   -1.2709 H       1  UNL1        0.0442
     21 H           2.6143    0.2430   -2.1182 H       1  UNL1        0.0442
     22 H           4.8476   -0.2462   -1.2359 H       1  UNL1        0.0477
     23 H           4.8476    1.2819   -0.3886 H       1  UNL1        0.0477
     24 H           2.2728    2.3336   -2.2854 H       1  UNL1        0.0522
     25 H           2.2728    0.8055   -3.1327 H       1  UNL1        0.0522
     26 H           0.0925    2.8207   -3.1638 H       1  UNL1        0.0427
     27 H           0.0925    1.2925   -4.0111 H       1  UNL1        0.0427
     28 H          -0.1505    2.4750   -6.1438 H       1  UNL1        0.0278
     29 H          -0.1505    4.0031   -5.2965 H       1  UNL1        0.0278
     30 H          -2.1619    3.3243   -4.0722 H       1  UNL1        0.0266
     31 H          -2.1619    1.7962   -4.9194 H       1  UNL1        0.0266
     32 H          -2.9017    4.5136   -6.1520 H       1  UNL1        0.0278
     33 H          -3.5286    3.3096   -6.7464 H       1  UNL1        0.0278
     34 H           2.9085    2.2334   -6.1766 H       1  UNL1        0.0427
     35 H           2.5368    0.7953   -5.7132 H       1  UNL1        0.0427
     36 H           7.0231    2.3306   -2.2508 H       1  UNL1        0.0477
     37 H           7.1794    1.5094   -3.4584 H       1  UNL1        0.0477
     38 H           3.2811   -1.6984    0.9241 H       1  UNL1        0.0442
     39 H           2.4704   -2.1974   -0.3010 H       1  UNL1        0.0442
@<TRIPOS>BOND
     1     1     2    1
     2     2     3    1
     3     3     4    1
     4     4     5    1
     5     5     6   am
     6     6     7    2
     7     6     8    1
     8     8     9    1
     9     9    10    1
    10    10    11    1
    11    11    12    1
    12    12    13    1
    13    13    14    1
    14     9    14    1
    15     5    15    1
    16    15    16    1
    17     2    16    1
    18     1    17    1
    19     1    18    1
    20     1    19    1
    21     3    20    1
    22     3    21    1
    23     4    22    1
    24     4    23    1
    25     8    24    1
    26     8    25    1
    27    10    26    1
    28    10    27    1
    29    11    28    1
    30    11    29    1
    31    12    30    1
    32    12    31    1
    33    13    32    1
    34    13    33    1
    35    14    34    1
    36    14    35    1
    37    15    36    1
    38    15    37    1
    39    16    38    1
    40    16    39    1
