@<TRIPOS>MOLECULE
*****
 39 38 0 0 0
SMALL
GASTEIGER

@<TRIPOS>ATOM
      1 C           1.0471    0.0881   -0.0038 C.3     1  UNL1       -0.0653
      2 C           2.5671    0.0881   -0.0038 C.3     1  UNL1       -0.0559
      3 C           3.0738    1.2943    0.7700 C.3     1  UNL1       -0.0533
      4 C           4.5938    1.2943    0.7700 C.3     1  UNL1       -0.0531
      5 C           5.1005    2.5005    1.5438 C.3     1  UNL1       -0.0526
      6 C           6.6205    2.5005    1.5438 C.3     1  UNL1       -0.0448
      7 C           7.1271    3.7067    2.3177 C.3     1  UNL1        0.0240
      8 C           8.6471    3.7067    2.3177 C.2     1  UNL1        0.2130
      9 O           9.2826    2.7803    1.7233 O.2     1  UNL1       -0.2758
     10 N           9.3821    4.7782    3.0051 N.am    1  UNL1       -0.3153
     11 C          10.8521    4.7782    3.0051 C.3     1  UNL1        0.0116
     12 C          11.3588    5.9843    3.7789 C.3     1  UNL1       -0.0376
     13 C          12.8788    5.9843    3.7789 C.3     1  UNL1       -0.0545
     14 C          13.3854    7.1905    4.5528 C.3     1  UNL1       -0.0652
     15 H           0.6905   -0.7610   -0.5486 H       1  UNL1        0.0230
     16 H           0.6905    0.9844   -0.4668 H       1  UNL1        0.0230
     17 H           0.6905    0.0409    1.0039 H       1  UNL1        0.0230
     18 H           2.9238    0.1353   -1.0115 H       1  UNL1        0.0263
     19 H           2.9238   -0.8082    0.4591 H       1  UNL1        0.0263
     20 H           2.7171    1.2471    1.7777 H       1  UNL1        0.0265
     21 H           2.7171    2.1906    0.3070 H       1  UNL1        0.0265
     22 H           4.9505    1.3415   -0.2377 H       1  UNL1        0.0265
     23 H           4.9505    0.3980    1.2330 H       1  UNL1        0.0265
     24 H           4.7438    2.4533    2.5515 H       1  UNL1        0.0265
     25 H           4.7438    3.3968    1.0809 H       1  UNL1        0.0265
     26 H           6.9771    2.5477    0.5361 H       1  UNL1        0.0270
     27 H           6.9771    1.6042    2.0068 H       1  UNL1        0.0270
     28 H           6.7705    3.6595    3.3254 H       1  UNL1        0.0358
     29 H           6.7705    4.6030    1.8547 H       1  UNL1        0.0358
     30 H           8.8899    5.4958    3.4655 H       1  UNL1        0.1487
     31 H          11.2088    4.8254    1.9974 H       1  UNL1        0.0462
     32 H          11.2088    3.8819    3.4681 H       1  UNL1        0.0462
     33 H          11.0021    5.9371    4.7866 H       1  UNL1        0.0280
     34 H          11.0021    6.8806    3.3160 H       1  UNL1        0.0280
     35 H          13.2354    6.0316    2.7712 H       1  UNL1        0.0263
     36 H          13.2355    5.0881    4.2419 H       1  UNL1        0.0263
     37 H          13.0288    8.0868    4.0898 H       1  UNL1        0.0230
     38 H          14.4554    7.1905    4.5528 H       1  UNL1        0.0230
     39 H          13.0288    7.1433    5.5605 H       1  UNL1        0.0230
@<TRIPOS>BOND
     1     1     2    1
     2     2     3    1
     3     3     4    1
     4     4     5    1
     5     5     6    1
     6     6     7    1
     7     7     8    1
     8     8     9    2
     9     8    10   am
    10    10    11    1
    11    11    12    1
    12    12    13    1
    13    13    14    1
    14     1    15    1
    15     1    16    1
    16     1    17    1
    17     2    18    1
    18     2    19    1
    19     3    20    1
    20     3    21    1
    21     4    22    1
    22     4    23    1
    23     5    24    1
    24     5    25    1
    25     6    26    1
    26     6    27    1
    27     7    28    1
    28     7    29    1
    29    10    30    1
    30    11    31    1
    31    11    32    1
    32    12    33    1
    33    12    34    1
    34    13    35    1
    35    13    36    1
    36    14    37    1
    37    14    38    1
    38    14    39    1
