@<TRIPOS>MOLECULE
*****
 31 30 0 0 0
SMALL
GASTEIGER

@<TRIPOS>ATOM
      1 C           1.0773   -0.0571    0.0276 C.3     1  UNL1       -0.0416
      2 C           2.5973   -0.0571    0.0276 C.3     1  UNL1        0.0449
      3 O           3.0706    1.0622   -0.7069 O.3     1  UNL1       -0.3778
      4 C           4.4906    1.0622   -0.7069 C.3     1  UNL1        0.0710
      5 C           4.9973    2.2604   -1.4931 C.3     1  UNL1        0.0711
      6 O           6.4173    2.2604   -1.4931 O.3     1  UNL1       -0.3760
      7 C           6.8906    3.3797   -2.2276 C.3     1  UNL1        0.0633
      8 C           8.4106    3.3797   -2.2276 C.3     1  UNL1        0.0351
      9 N           8.9006    4.5384   -2.9879 N.am    1  UNL1       -0.3121
     10 C          10.3459    4.7630   -3.1353 C.2     1  UNL1        0.2268
     11 O          11.1717    3.9554   -2.6053 O.2     1  UNL1       -0.2744
     12 C          10.8525    5.9612   -3.9215 C.3     1  UNL1        0.0707
     13 N          12.3225    5.9612   -3.9215 N.3     1  UNL1       -0.3225
     14 H           0.7206   -0.9006    0.5810 H       1  UNL1        0.0252
     15 H           0.7206   -0.1147   -0.9796 H       1  UNL1        0.0252
     16 H           0.7206    0.8439    0.4813 H       1  UNL1        0.0252
     17 H           2.9540   -0.9581   -0.4261 H       1  UNL1        0.0557
     18 H           2.9540    0.0004    1.0348 H       1  UNL1        0.0557
     19 H           4.8473    0.1612   -1.1606 H       1  UNL1        0.0583
     20 H           4.8473    1.1198    0.3003 H       1  UNL1        0.0583
     21 H           4.6406    3.1614   -1.0394 H       1  UNL1        0.0583
     22 H           4.6406    2.2028   -2.5002 H       1  UNL1        0.0583
     23 H           6.5340    4.2807   -1.7738 H       1  UNL1        0.0575
     24 H           6.5339    3.3221   -3.2347 H       1  UNL1        0.0575
     25 H           8.7673    2.4787   -2.6813 H       1  UNL1        0.0484
     26 H           8.7673    3.4373   -1.2204 H       1  UNL1        0.0484
     27 H           8.2609    5.1641   -3.3984 H       1  UNL1        0.1488
     28 H          10.4959    6.8622   -3.4677 H       1  UNL1        0.0518
     29 H          10.4959    5.9036   -4.9286 H       1  UNL1        0.0518
     30 H          12.6625    6.0161   -2.9614 H       1  UNL1        0.1186
     31 H          12.6625    6.7652   -4.4490 H       1  UNL1        0.1186
@<TRIPOS>BOND
     1     1     2    1
     2     2     3    1
     3     3     4    1
     4     4     5    1
     5     5     6    1
     6     6     7    1
     7     7     8    1
     8     8     9    1
     9     9    10   am
    10    10    11    2
    11    10    12    1
    12    12    13    1
    13     1    14    1
    14     1    15    1
    15     1    16    1
    16     2    17    1
    17     2    18    1
    18     4    19    1
    19     4    20    1
    20     5    21    1
    21     5    22    1
    22     7    23    1
    23     7    24    1
    24     8    25    1
    25     8    26    1
    26     9    27    1
    27    12    28    1
    28    12    29    1
    29    13    30    1
    30    13    31    1
