@<TRIPOS>MOLECULE
*****
 49 48 0 0 0
SMALL
GASTEIGER

@<TRIPOS>ATOM
      1 O           1.0624    0.0647    0.0438 O.2     1  UNL1       -0.2963
      2 C           2.3333    0.0647    0.0438 C.2     1  UNL1        0.1428
      3 C           3.0933   -0.1258    1.3464 C.2     1  UNL1       -0.0264
      4 C           4.4537   -0.1258    1.3464 C.2     1  UNL1       -0.0810
      5 C           5.2137   -0.3162    2.6489 C.3     1  UNL1       -0.0343
      6 C           6.7081   -0.2760    2.3740 C.3     1  UNL1       -0.0475
      7 C           7.4681   -0.4665    3.6765 C.3     1  UNL1       -0.0292
      8 C           8.9625   -0.4263    3.4017 C.3     1  UNL1        0.0478
      9 O           9.6725   -0.6043    4.6185 O.3     1  UNL1       -0.3775
     10 C          11.0686   -0.5667    4.3618 C.3     1  UNL1        0.0710
     11 C          11.8286   -0.7572    5.6643 C.3     1  UNL1        0.0711
     12 O          13.2247   -0.7197    5.4075 O.3     1  UNL1       -0.3752
     13 C          13.9347   -0.8976    6.6243 C.3     1  UNL1        0.0711
     14 C          15.4291   -0.8574    6.3495 C.3     1  UNL1        0.0711
     15 O          16.1391   -1.0354    7.5663 O.3     1  UNL1       -0.3752
     16 C          17.5352   -0.9978    7.3096 C.3     1  UNL1        0.0711
     17 C          18.2952   -1.1883    8.6121 C.3     1  UNL1        0.0711
     18 O          19.6912   -1.1508    8.3553 O.3     1  UNL1       -0.3752
     19 C          20.4012   -1.3287    9.5721 C.3     1  UNL1        0.0708
     20 C          21.8957   -1.2885    9.2973 C.3     1  UNL1        0.0676
     21 O          22.6057   -1.4665   10.5141 O.3     1  UNL1       -0.3927
     22 H           2.8493    0.1940   -0.8405 H       1  UNL1        0.1075
     23 H           2.5773   -0.2551    2.2307 H       1  UNL1        0.0646
     24 H           4.9697    0.0036    0.4620 H       1  UNL1        0.0573
     25 H           4.9552   -1.2619    3.0776 H       1  UNL1        0.0307
     26 H           4.9552    0.4670    3.3305 H       1  UNL1        0.0307
     27 H           6.9666    0.6696    1.9453 H       1  UNL1        0.0269
     28 H           6.9666   -1.0593    1.6924 H       1  UNL1        0.0269
     29 H           7.2096   -1.4122    4.1053 H       1  UNL1        0.0287
     30 H           7.2096    0.3167    4.3581 H       1  UNL1        0.0287
     31 H           9.2210    0.5193    2.9729 H       1  UNL1        0.0560
     32 H           9.2210   -1.2096    2.7201 H       1  UNL1        0.0560
     33 H          11.3271    0.3789    3.9330 H       1  UNL1        0.0583
     34 H          11.3271   -1.3500    3.6802 H       1  UNL1        0.0583
     35 H          11.5701   -1.7029    6.0930 H       1  UNL1        0.0583
     36 H          11.5701    0.0261    6.3459 H       1  UNL1        0.0583
     37 H          13.6762   -1.8433    7.0531 H       1  UNL1        0.0583
     38 H          13.6762   -0.1143    7.3059 H       1  UNL1        0.0583
     39 H          15.6876    0.0882    5.9207 H       1  UNL1        0.0583
     40 H          15.6876   -1.6407    5.6679 H       1  UNL1        0.0583
     41 H          17.7936   -0.0522    6.8808 H       1  UNL1        0.0583
     42 H          17.7936   -1.7811    6.6280 H       1  UNL1        0.0583
     43 H          18.0367   -2.1339    9.0408 H       1  UNL1        0.0583
     44 H          18.0367   -0.4050    9.2937 H       1  UNL1        0.0583
     45 H          20.1428   -2.2743   10.0009 H       1  UNL1        0.0583
     46 H          20.1428   -0.5454   10.2537 H       1  UNL1        0.0583
     47 H          22.1541   -0.3429    8.8685 H       1  UNL1        0.0580
     48 H          22.1541   -2.0718    8.6157 H       1  UNL1        0.0580
     49 H          22.3713   -0.7564   11.1320 H       1  UNL1        0.2095
@<TRIPOS>BOND
     1     1     2    2
     2     2     3    1
     3     3     4    2
     4     4     5    1
     5     5     6    1
     6     6     7    1
     7     7     8    1
     8     8     9    1
     9     9    10    1
    10    10    11    1
    11    11    12    1
    12    12    13    1
    13    13    14    1
    14    14    15    1
    15    15    16    1
    16    16    17    1
    17    17    18    1
    18    18    19    1
    19    19    20    1
    20    20    21    1
    21     2    22    1
    22     3    23    1
    23     4    24    1
    24     5    25    1
    25     5    26    1
    26     6    27    1
    27     6    28    1
    28     7    29    1
    29     7    30    1
    30     8    31    1
    31     8    32    1
    32    10    33    1
    33    10    34    1
    34    11    35    1
    35    11    36    1
    36    13    37    1
    37    13    38    1
    38    14    39    1
    39    14    40    1
    40    16    41    1
    41    16    42    1
    42    17    43    1
    43    17    44    1
    44    19    45    1
    45    19    46    1
    46    20    47    1
    47    20    48    1
    48    21    49    1
