@<TRIPOS>MOLECULE
*****
 11 10 0 0 0
SMALL
GASTEIGER

@<TRIPOS>ATOM
      1 C           0.9409   -0.0797    0.0124 C.3     1  UNL1       -0.0655
      2 C           2.4609   -0.0797    0.0124 C.3     1  UNL1       -0.0588
      3 C           2.9676    1.1116   -0.7842 C.3     1  UNL1       -0.0655
      4 H           0.5843   -0.9183    0.5732 H       1  UNL1        0.0230
      5 H           0.5842   -0.1461   -0.9942 H       1  UNL1        0.0230
      6 H           0.5842    0.8252    0.4583 H       1  UNL1        0.0230
      7 H           2.8176   -0.9846   -0.4334 H       1  UNL1        0.0260
      8 H           2.8176   -0.0134    1.0191 H       1  UNL1        0.0260
      9 H           2.6109    1.0452   -1.7908 H       1  UNL1        0.0230
     10 H           4.0376    1.1116   -0.7842 H       1  UNL1        0.0230
     11 H           2.6109    2.0165   -0.3383 H       1  UNL1        0.0230
@<TRIPOS>BOND
     1     1     2    1
     2     2     3    1
     3     1     4    1
     4     1     5    1
     5     1     6    1
     6     2     7    1
     7     2     8    1
     8     3     9    1
     9     3    10    1
    10     3    11    1
