@<TRIPOS>MOLECULE
*****
 29 28 0 0 0
SMALL
GASTEIGER

@<TRIPOS>ATOM
      1 C           0.9672   -0.0734   -0.0595 C.3     1  UNL1        0.0364
      2 O           2.3872   -0.0734   -0.0595 O.3     1  UNL1       -0.3830
      3 C           2.8605    0.8712    0.8893 C.3     1  UNL1        0.0473
      4 C           4.3805    0.8712    0.8893 C.3     1  UNL1       -0.0294
      5 C           4.8871    1.8823    1.9048 C.3     1  UNL1       -0.0489
      6 C           6.4071    1.8823    1.9048 C.3     1  UNL1       -0.0294
      7 C           6.9138    2.8934    2.9204 C.3     1  UNL1        0.0478
      8 O           8.3338    2.8934    2.9204 O.3     1  UNL1       -0.3775
      9 C           8.8071    3.8380    3.8692 C.3     1  UNL1        0.0707
     10 C          10.3271    3.8380    3.8692 C.3     1  UNL1        0.0676
     11 O          10.8005    4.7826    4.8179 O.3     1  UNL1       -0.3927
     12 H           0.6105   -0.7851   -0.7744 H       1  UNL1        0.0523
     13 H           0.6105    0.9016   -0.3184 H       1  UNL1        0.0523
     14 H           0.6105   -0.3366    0.9144 H       1  UNL1        0.0523
     15 H           2.5038    0.6080    1.8631 H       1  UNL1        0.0560
     16 H           2.5038    1.8462    0.6303 H       1  UNL1        0.0560
     17 H           4.7372    1.1345   -0.0846 H       1  UNL1        0.0287
     18 H           4.7372   -0.1038    1.1482 H       1  UNL1        0.0287
     19 H           4.5305    1.6191    2.8787 H       1  UNL1        0.0267
     20 H           4.5305    2.8573    1.6459 H       1  UNL1        0.0267
     21 H           6.7638    2.1456    0.9310 H       1  UNL1        0.0287
     22 H           6.7638    0.9073    2.1638 H       1  UNL1        0.0287
     23 H           6.5571    2.6302    3.8943 H       1  UNL1        0.0560
     24 H           6.5571    3.8684    2.6615 H       1  UNL1        0.0560
     25 H           8.4505    3.5747    4.8430 H       1  UNL1        0.0583
     26 H           8.4505    4.8130    3.6102 H       1  UNL1        0.0583
     27 H          10.6838    4.1012    2.8953 H       1  UNL1        0.0580
     28 H          10.6838    2.8630    4.1281 H       1  UNL1        0.0580
     29 H          10.4771    5.6664    4.5832 H       1  UNL1        0.2095
@<TRIPOS>BOND
     1     1     2    1
     2     2     3    1
     3     3     4    1
     4     4     5    1
     5     5     6    1
     6     6     7    1
     7     7     8    1
     8     8     9    1
     9     9    10    1
    10    10    11    1
    11     1    12    1
    12     1    13    1
    13     1    14    1
    14     3    15    1
    15     3    16    1
    16     4    17    1
    17     4    18    1
    18     5    19    1
    19     5    20    1
    20     6    21    1
    21     6    22    1
    22     7    23    1
    23     7    24    1
    24     9    25    1
    25     9    26    1
    26    10    27    1
    27    10    28    1
    28    11    29    1
