@<TRIPOS>MOLECULE
*****
 33 32 0 0 0
SMALL
GASTEIGER

@<TRIPOS>ATOM
      1 C           0.9995   -0.0715   -0.0699 C.3     1  UNL1       -0.0653
      2 C           2.5195   -0.0715   -0.0699 C.3     1  UNL1       -0.0559
      3 C           3.0261   -0.9421    1.0685 C.3     1  UNL1       -0.0529
      4 C           4.5461   -0.9421    1.0685 C.3     1  UNL1       -0.0448
      5 C           5.0528   -1.8127    2.2068 C.3     1  UNL1        0.0242
      6 C           6.5728   -1.8127    2.2068 C.2     1  UNL1        0.2155
      7 O           7.2083   -1.1440    1.3325 O.2     1  UNL1       -0.2756
      8 N           7.3078   -2.5860    3.2180 N.am    1  UNL1       -0.3020
      9 C           6.5728   -3.3594    4.2293 C.3     1  UNL1        0.0118
     10 C           5.0784   -3.1906    4.0086 C.3     1  UNL1       -0.0493
     11 C           8.7778   -2.5860    3.2180 C.3     1  UNL1        0.0118
     12 C           9.2845   -3.4566    4.3564 C.3     1  UNL1       -0.0493
     13 H           0.6428    0.5413   -0.8712 H       1  UNL1        0.0230
     14 H           0.6428    0.3160    0.8615 H       1  UNL1        0.0230
     15 H           0.6428   -1.0719   -0.1999 H       1  UNL1        0.0230
     16 H           2.8762    0.9289    0.0602 H       1  UNL1        0.0263
     17 H           2.8762   -0.4591   -1.0013 H       1  UNL1        0.0263
     18 H           2.6695   -1.9425    0.9384 H       1  UNL1        0.0265
     19 H           2.6695   -0.5545    1.9998 H       1  UNL1        0.0265
     20 H           4.9028    0.0583    1.1985 H       1  UNL1        0.0270
     21 H           4.9028   -1.3296    0.1371 H       1  UNL1        0.0270
     22 H           4.6961   -2.8130    2.0767 H       1  UNL1        0.0358
     23 H           4.6961   -1.4251    3.1382 H       1  UNL1        0.0358
     24 H           6.8313   -3.0062    5.2057 H       1  UNL1        0.0462
     25 H           6.8313   -4.3942    4.1442 H       1  UNL1        0.0462
     26 H           4.8199   -2.1558    4.0937 H       1  UNL1        0.0245
     27 H           4.5434   -3.7536    4.7447 H       1  UNL1        0.0245
     28 H           4.8199   -3.5438    3.0322 H       1  UNL1        0.0245
     29 H           9.1345   -1.5856    3.3481 H       1  UNL1        0.0462
     30 H           9.1345   -2.9736    2.2866 H       1  UNL1        0.0462
     31 H           8.9278   -3.0690    5.2878 H       1  UNL1        0.0245
     32 H          10.3545   -3.4566    4.3564 H       1  UNL1        0.0245
     33 H           8.9278   -4.4570    4.2263 H       1  UNL1        0.0245
@<TRIPOS>BOND
     1     1     2    1
     2     2     3    1
     3     3     4    1
     4     4     5    1
     5     5     6    1
     6     6     7    2
     7     6     8   am
     8     8     9    1
     9     9    10    1
    10     8    11    1
    11    11    12    1
    12     1    13    1
    13     1    14    1
    14     1    15    1
    15     2    16    1
    16     2    17    1
    17     3    18    1
    18     3    19    1
    19     4    20    1
    20     4    21    1
    21     5    22    1
    22     5    23    1
    23     9    24    1
    24     9    25    1
    25    10    26    1
    26    10    27    1
    27    10    28    1
    28    11    29    1
    29    11    30    1
    30    12    31    1
    31    12    32    1
    32    12    33    1
