@<TRIPOS>MOLECULE
*****
 38 40 0 0 0
SMALL
GASTEIGER

@<TRIPOS>ATOM
      1 C           1.0161   -0.0832   -0.0531 C.3     1  UNL1        0.0087
      2 C           2.5361   -0.0832   -0.0531 C.3     1  UNL1        0.0118
      3 N           3.0261   -1.4600    0.1061 N.3     1  UNL1       -0.2970
      4 C           2.5361   -2.2862   -1.0066 C.3     1  UNL1        0.0105
      5 C           1.0161   -2.2862   -1.0066 C.3     1  UNL1       -0.0368
      6 C           0.5094   -3.1406   -2.1571 C.3     1  UNL1       -0.0436
      7 C          -1.0106   -3.1406   -2.1571 C.3     1  UNL1       -0.0042
      8 C          -1.5172   -1.7170   -2.3217 C.3     1  UNL1       -0.0436
      9 C           3.0428   -3.7098   -0.8419 C.3     1  UNL1       -0.0368
     10 C          -1.5172   -3.9949   -3.3077 C.3     1  UNL1        0.0027
     11 N          -2.9872   -3.9949   -3.3076 N.3     1  UNL1       -0.3148
     12 C          -1.5172   -3.7098   -0.8419 C.3     1  UNL1        0.0027
     13 C           4.4961   -1.4600    0.1061 C.3     1  UNL1        0.0118
     14 C           5.0028   -2.8836    0.2708 C.3     1  UNL1        0.0087
     15 N           0.5261    1.2935   -0.2123 N.3     1  UNL1       -0.3136
     16 H           0.6594   -0.4839    0.8728 H       1  UNL1        0.0437
     17 H           0.6594   -0.6846   -0.8630 H       1  UNL1        0.0437
     18 H           2.8928    0.5182    0.7569 H       1  UNL1        0.0439
     19 H           2.8928    0.3175   -0.9789 H       1  UNL1        0.0439
     20 H           2.8928   -1.8855   -1.9324 H       1  UNL1        0.0462
     21 H           0.6594   -1.2841   -1.1224 H       1  UNL1        0.0280
     22 H           0.6594   -2.6869   -0.0807 H       1  UNL1        0.0280
     23 H           0.8661   -4.1427   -2.0412 H       1  UNL1        0.0272
     24 H           0.8661   -2.7399   -3.0829 H       1  UNL1        0.0272
     25 H          -2.1948   -1.2723   -1.6231 H       1  UNL1        0.0272
     26 H          -1.9300   -1.0712   -3.0684 H       1  UNL1        0.0272
     27 H           3.7203   -4.1545   -1.5405 H       1  UNL1        0.0280
     28 H           3.4556   -4.3556   -0.0953 H       1  UNL1        0.0280
     29 H          -1.1606   -4.9971   -3.1918 H       1  UNL1        0.0430
     30 H          -1.1606   -3.5942   -4.2335 H       1  UNL1        0.0430
     31 H          -3.4989   -4.8557   -3.5017 H       1  UNL1        0.1220
     32 H          -1.0363   -4.5563   -0.3980 H       1  UNL1        0.0430
     33 H          -1.7217   -3.3240    0.1349 H       1  UNL1        0.0430
     34 H           4.8528   -0.8586    0.9161 H       1  UNL1        0.0439
     35 H           4.8528   -1.0593   -0.8197 H       1  UNL1        0.0439
     36 H           5.3404   -3.2971    1.1981 H       1  UNL1        0.0437
     37 H           5.5047   -3.7107   -0.1862 H       1  UNL1        0.0437
     38 H           0.2042    1.6878   -1.0962 H       1  UNL1        0.1220
@<TRIPOS>BOND
     1     1     2    1
     2     2     3    1
     3     3     4    1
     4     4     5    1
     5     5     6    1
     6     6     7    1
     7     7     8    1
     8     8     9    1
     9     4     9    1
    10     7    10    1
    11    10    11    1
    12    11    12    1
    13     7    12    1
    14     3    13    1
    15    13    14    1
    16    14    15    1
    17     1    15    1
    18     1    16    1
    19     1    17    1
    20     2    18    1
    21     2    19    1
    22     4    20    1
    23     5    21    1
    24     5    22    1
    25     6    23    1
    26     6    24    1
    27     8    25    1
    28     8    26    1
    29     9    27    1
    30     9    28    1
    31    10    29    1
    32    10    30    1
    33    11    31    1
    34    12    32    1
    35    12    33    1
    36    13    34    1
    37    13    35    1
    38    14    36    1
    39    14    37    1
    40    15    38    1
