@<TRIPOS>MOLECULE
*****
 30 30 0 0 0
SMALL
GASTEIGER

@<TRIPOS>ATOM
      1 N           0.9418   -0.0730    0.0359 N.3     1  UNL1       -0.3300
      2 C           2.4118   -0.0730    0.0359 C.3     1  UNL1       -0.0069
      3 C           2.9185   -0.5772    1.3774 C.3     1  UNL1       -0.0395
      4 C           4.4385   -0.5772    1.3774 C.3     1  UNL1       -0.0391
      5 C           4.9451   -1.0814    2.7188 C.3     1  UNL1       -0.0010
      6 N           6.4151   -1.0814    2.7188 N.3     1  UNL1       -0.2999
      7 C           6.9051   -1.5690    4.0161 C.3     1  UNL1        0.0115
      8 C           8.4251   -1.5690    4.0161 C.3     1  UNL1        0.0087
      9 N           8.9151   -2.0566    5.3134 N.3     1  UNL1       -0.3136
     10 C          10.3851   -2.0566    5.3134 C.3     1  UNL1        0.0087
     11 C           6.9051    0.2859    2.4924 C.3     1  UNL1        0.0115
     12 H           0.6018    0.2654   -0.8643 H       1  UNL1        0.1182
     13 H           0.6018    0.5374    0.7790 H       1  UNL1        0.1182
     14 H           2.7685    0.9223   -0.1289 H       1  UNL1        0.0422
     15 H           2.7685   -0.7133   -0.7436 H       1  UNL1        0.0422
     16 H           2.5618   -1.5724    1.5421 H       1  UNL1        0.0278
     17 H           2.5618    0.0632    2.1569 H       1  UNL1        0.0278
     18 H           4.7951    0.4181    1.2126 H       1  UNL1        0.0278
     19 H           4.7951   -1.2175    0.5978 H       1  UNL1        0.0278
     20 H           4.5885   -2.0766    2.8836 H       1  UNL1        0.0427
     21 H           4.5885   -0.4410    3.4983 H       1  UNL1        0.0427
     22 H           6.5485   -2.5642    4.1809 H       1  UNL1        0.0439
     23 H           6.5485   -0.9287    4.7957 H       1  UNL1        0.0439
     24 H           8.7818   -0.5737    3.8513 H       1  UNL1        0.0437
     25 H           8.7818   -2.2093    3.2366 H       1  UNL1        0.0437
     26 H           8.5751   -3.0053    5.4705 H       1  UNL1        0.1220
     27 H          10.9527   -2.8845    4.9429 H       1  UNL1        0.0437
     28 H          11.2102   -1.8354    5.9578 H       1  UNL1        0.0437
     29 H           7.1768    0.5561    1.4934 H       1  UNL1        0.0439
     30 H           6.4086    1.2164    2.6732 H       1  UNL1        0.0439
@<TRIPOS>BOND
     1     1     2    1
     2     2     3    1
     3     3     4    1
     4     4     5    1
     5     5     6    1
     6     6     7    1
     7     7     8    1
     8     8     9    1
     9     9    10    1
    10    10    11    1
    11     6    11    1
    12     1    12    1
    13     1    13    1
    14     2    14    1
    15     2    15    1
    16     3    16    1
    17     3    17    1
    18     4    18    1
    19     4    19    1
    20     5    20    1
    21     5    21    1
    22     7    22    1
    23     7    23    1
    24     8    24    1
    25     8    25    1
    26     9    26    1
    27    10    27    1
    28    10    28    1
    29    11    29    1
    30    11    30    1
