@<TRIPOS>MOLECULE
*****
 14 13 0 0 0
SMALL
GASTEIGER

@<TRIPOS>ATOM
      1 C           1.0098    0.0993    0.0058 C.3     1  UNL1       -0.0653
      2 C           2.5298    0.0993    0.0058 C.3     1  UNL1       -0.0562
      3 C           3.0365    0.9721    1.1425 C.3     1  UNL1       -0.0562
      4 C           4.5565    0.9721    1.1425 C.3     1  UNL1       -0.0653
      5 H           0.6532   -0.5151   -0.7943 H       1  UNL1        0.0230
      6 H           0.6532    1.0995   -0.1262 H       1  UNL1        0.0230
      7 H           0.6532   -0.2864    0.9380 H       1  UNL1        0.0230
      8 H           2.8865    0.4851   -0.9263 H       1  UNL1        0.0263
      9 H           2.8865   -0.9008    0.1379 H       1  UNL1        0.0263
     10 H           2.6798    0.5864    2.0746 H       1  UNL1        0.0263
     11 H           2.6798    1.9723    1.0104 H       1  UNL1        0.0263
     12 H           4.9132   -0.0280    1.2745 H       1  UNL1        0.0230
     13 H           4.9132    1.5865    1.9426 H       1  UNL1        0.0230
     14 H           4.9132    1.3579    0.2103 H       1  UNL1        0.0230
@<TRIPOS>BOND
     1     1     2    1
     2     2     3    1
     3     3     4    1
     4     1     5    1
     5     1     6    1
     6     1     7    1
     7     2     8    1
     8     2     9    1
     9     3    10    1
    10     3    11    1
    11     4    12    1
    12     4    13    1
    13     4    14    1
