@<TRIPOS>MOLECULE
*****
 22 22 0 0 0
SMALL
GASTEIGER

@<TRIPOS>ATOM
      1 C           1.0089   -0.0983    0.0161 C.3     1  UNL1       -0.0370
      2 C           2.5289   -0.0983    0.0161 C.ar    1  UNL1       -0.0152
      3 C           3.2490    0.5976    1.0511 C.ar    1  UNL1       -0.0559
      4 C           4.6892    0.5976    1.0511 C.ar    1  UNL1       -0.0581
      5 C           5.4093    1.2935    2.0862 C.ar    1  UNL1       -0.0425
      6 C           4.6493    2.0280    3.1786 C.3     1  UNL1       -0.0043
      7 C           3.1549    1.8730    2.9481 C.3     1  UNL1        0.0482
      8 O           2.4449    2.5592    3.9686 O.3     1  UNL1       -0.3947
      9 C           6.8495    1.2935    2.0862 C.ar    1  UNL1       -0.0229
     10 C           3.2490   -0.7942   -1.0190 C.ar    1  UNL1        0.1265
     11 F           2.5840   -1.4369   -1.9748 F       1  UNL1       -0.2052
     12 H           0.6523    0.4646    0.8532 H       1  UNL1        0.0278
     13 H           0.6523   -1.1047    0.0850 H       1  UNL1        0.0278
     14 H           0.6523    0.3453   -0.8900 H       1  UNL1        0.0278
     15 H           2.7330    1.0963    1.7928 H       1  UNL1        0.0621
     16 H           5.2052    0.0990    0.3094 H       1  UNL1        0.0620
     17 H           4.9078    3.0661    3.1567 H       1  UNL1        0.0335
     18 H           4.9078    1.6161    4.1317 H       1  UNL1        0.0335
     19 H           2.8964    0.8350    2.9699 H       1  UNL1        0.0560
     20 H           2.8964    2.2850    1.9950 H       1  UNL1        0.0560
     21 H           2.6793    2.1858    4.8326 H       1  UNL1        0.2094
     22 H           7.7991    1.5190    2.4215 H       1  UNL1        0.0649
@<TRIPOS>BOND
     1     1     2    1
     2     2     3   ar
     3     3     4   ar
     4     4     5   ar
     5     5     6    1
     6     6     7    1
     7     7     8    1
     8     5     9   ar
     9     9    10   ar
    10     2    10   ar
    11    10    11    1
    12     1    12    1
    13     1    13    1
    14     1    14    1
    15     3    15    1
    16     4    16    1
    17     6    17    1
    18     6    18    1
    19     7    19    1
    20     7    20    1
    21     8    21    1
    22     9    22    1
