@<TRIPOS>MOLECULE
*****
 31 30 0 0 0
SMALL
GASTEIGER

@<TRIPOS>ATOM
      1 C           0.9321    0.0280   -0.0679 C.3     1  UNL1       -0.0416
      2 C           2.4521    0.0280   -0.0679 C.3     1  UNL1        0.0449
      3 O           2.9254    1.3509    0.1377 O.3     1  UNL1       -0.3778
      4 C           4.3454    1.3509    0.1377 C.3     1  UNL1        0.0710
      5 C           4.8521    2.7670    0.3578 C.3     1  UNL1        0.0711
      6 O           6.2721    2.7670    0.3578 O.3     1  UNL1       -0.3752
      7 C           6.7454    4.0899    0.5634 C.3     1  UNL1        0.0711
      8 C           8.2654    4.0899    0.5634 C.3     1  UNL1        0.0711
      9 O           8.7388    5.4128    0.7690 O.3     1  UNL1       -0.3763
     10 C          10.1588    5.4128    0.7690 C.3     1  UNL1        0.0600
     11 C          10.6654    6.8289    0.9891 C.3     1  UNL1        0.0166
     12 N          12.1354    6.8289    0.9891 N.3     1  UNL1       -0.3279
     13 H           0.5755   -0.9689   -0.2228 H       1  UNL1        0.0252
     14 H           0.5755    0.6606   -0.8537 H       1  UNL1        0.0252
     15 H           0.5755    0.3922    0.8729 H       1  UNL1        0.0252
     16 H           2.8088   -0.3363   -1.0086 H       1  UNL1        0.0557
     17 H           2.8088   -0.6046    0.7179 H       1  UNL1        0.0557
     18 H           4.7021    0.9866   -0.8030 H       1  UNL1        0.0583
     19 H           4.7021    0.7183    0.9235 H       1  UNL1        0.0583
     20 H           4.4954    3.1312    1.2985 H       1  UNL1        0.0583
     21 H           4.4954    3.3995   -0.4280 H       1  UNL1        0.0583
     22 H           6.3888    4.4541    1.5041 H       1  UNL1        0.0583
     23 H           6.3888    4.7225   -0.2224 H       1  UNL1        0.0583
     24 H           8.6221    3.7256   -0.3774 H       1  UNL1        0.0583
     25 H           8.6221    3.4573    1.3492 H       1  UNL1        0.0583
     26 H          10.5154    5.0485   -0.1718 H       1  UNL1        0.0572
     27 H          10.5154    4.7802    1.5548 H       1  UNL1        0.0572
     28 H          10.3088    7.1931    1.9298 H       1  UNL1        0.0444
     29 H          10.3088    7.4614    0.2032 H       1  UNL1        0.0444
     30 H          12.4754    6.2258    1.7382 H       1  UNL1        0.1183
     31 H          12.4754    7.7791    1.1367 H       1  UNL1        0.1183
@<TRIPOS>BOND
     1     1     2    1
     2     2     3    1
     3     3     4    1
     4     4     5    1
     5     5     6    1
     6     6     7    1
     7     7     8    1
     8     8     9    1
     9     9    10    1
    10    10    11    1
    11    11    12    1
    12     1    13    1
    13     1    14    1
    14     1    15    1
    15     2    16    1
    16     2    17    1
    17     4    18    1
    18     4    19    1
    19     5    20    1
    20     5    21    1
    21     7    22    1
    22     7    23    1
    23     8    24    1
    24     8    25    1
    25    10    26    1
    26    10    27    1
    27    11    28    1
    28    11    29    1
    29    12    30    1
    30    12    31    1
