@<TRIPOS>MOLECULE
*****
 33 33 0 0 0
SMALL
GASTEIGER

@<TRIPOS>ATOM
      1 C           0.9844    0.0554   -0.0818 C.3     1  UNL1       -0.0653
      2 C           2.5044    0.0554   -0.0818 C.3     1  UNL1       -0.0555
      3 C           3.0110   -0.8582    1.0223 C.3     1  UNL1       -0.0450
      4 C           4.5310   -0.8582    1.0223 C.3     1  UNL1        0.0241
      5 C           5.0377   -1.7718    2.1264 C.2     1  UNL1        0.2156
      6 O           4.2118   -2.3877    2.8706 O.2     1  UNL1       -0.2756
      7 N           6.4829   -1.9431    2.3333 N.am    1  UNL1       -0.2990
      8 C           6.9729   -2.8266    3.4011 C.3     1  UNL1        0.0275
      9 C           8.4929   -2.8266    3.4011 C.3     1  UNL1        0.0145
     10 N           8.9829   -3.7102    4.4689 N.3     1  UNL1       -0.3024
     11 C           8.4929   -5.0767    4.2376 C.3     1  UNL1       -0.0126
     12 C          10.4529   -3.7102    4.4689 C.3     1  UNL1        0.0145
     13 C           7.4382   -1.2308    1.4725 C.3     1  UNL1        0.0275
     14 H           0.6277    0.6985   -0.8590 H       1  UNL1        0.0230
     15 H           0.6277    0.4069    0.8638 H       1  UNL1        0.0230
     16 H           0.6277   -0.9393   -0.2501 H       1  UNL1        0.0230
     17 H           2.8610    1.0500    0.0865 H       1  UNL1        0.0263
     18 H           2.8610   -0.2962   -1.0274 H       1  UNL1        0.0263
     19 H           2.6544   -1.8529    0.8539 H       1  UNL1        0.0270
     20 H           2.6544   -0.5067    1.9679 H       1  UNL1        0.0270
     21 H           4.8877    0.1364    1.1906 H       1  UNL1        0.0358
     22 H           4.8877   -1.2098    0.0767 H       1  UNL1        0.0358
     23 H           6.6163   -3.8213    3.2328 H       1  UNL1        0.0477
     24 H           6.6163   -2.4751    4.3467 H       1  UNL1        0.0477
     25 H           8.8496   -1.8320    3.5695 H       1  UNL1        0.0442
     26 H           8.8496   -3.1782    2.4556 H       1  UNL1        0.0442
     27 H           7.4229   -5.0767    4.2376 H       1  UNL1        0.0391
     28 H           8.8496   -5.7198    5.0148 H       1  UNL1        0.0391
     29 H           8.8496   -5.4282    3.2920 H       1  UNL1        0.0391
     30 H          11.0077   -4.5566    4.1214 H       1  UNL1        0.0442
     31 H          11.2511   -3.5007    5.1500 H       1  UNL1        0.0442
     32 H           7.4530   -1.5102    0.4397 H       1  UNL1        0.0477
     33 H           7.4578   -0.1785    1.2794 H       1  UNL1        0.0477
@<TRIPOS>BOND
     1     1     2    1
     2     2     3    1
     3     3     4    1
     4     4     5    1
     5     5     6    2
     6     5     7   am
     7     7     8    1
     8     8     9    1
     9     9    10    1
    10    10    11    1
    11    10    12    1
    12    12    13    1
    13     7    13    1
    14     1    14    1
    15     1    15    1
    16     1    16    1
    17     2    17    1
    18     2    18    1
    19     3    19    1
    20     3    20    1
    21     4    21    1
    22     4    22    1
    23     8    23    1
    24     8    24    1
    25     9    25    1
    26     9    26    1
    27    11    27    1
    28    11    28    1
    29    11    29    1
    30    12    30    1
    31    12    31    1
    32    13    32    1
    33    13    33    1
