@<TRIPOS>MOLECULE
*****
 33 34 0 0 0
SMALL
GASTEIGER

@<TRIPOS>ATOM
      1 N           0.9222    0.0308   -0.0548 N.pl3   1  UNL1       -0.3580
      2 C           2.3922    0.0308   -0.0548 C.ar    1  UNL1        0.0246
      3 C           3.1123    1.0937   -0.7074 C.ar    1  UNL1       -0.0403
      4 C           4.5525    1.0937   -0.7074 C.ar    1  UNL1       -0.0479
      5 C           5.2726    2.1566   -1.3601 C.ar    1  UNL1        0.0368
      6 C           4.5126    3.2783   -2.0489 C.2     1  UNL1        0.2443
      7 O           5.1481    4.2162   -2.6249 O.2     1  UNL1       -0.2702
      8 N           3.0426    3.2783   -2.0489 N.am    1  UNL1       -0.3084
      9 C           2.3076    4.3632   -2.7151 C.3     1  UNL1        0.0257
     10 C           0.8132    4.1265   -2.5697 C.3     1  UNL1       -0.0219
     11 C           0.0532    5.2482   -3.2586 C.3     1  UNL1       -0.0024
     12 N          -1.3920    5.0193   -3.1180 N.3     1  UNL1       -0.3159
     13 C          -2.1270    6.1042   -3.7842 C.3     1  UNL1       -0.0024
     14 C           2.6748    4.3930   -4.1898 C.3     1  UNL1       -0.0219
     15 C           6.7128    2.1566   -1.3601 C.ar    1  UNL1       -0.0479
     16 C           3.1123   -1.0320    0.5979 C.ar    1  UNL1       -0.0403
     17 H           0.4300    0.7574   -0.5009 H       1  UNL1        0.1423
     18 H           0.4300   -0.6957    0.3914 H       1  UNL1        0.1423
     19 H           2.5963    1.8553   -1.1751 H       1  UNL1        0.0636
     20 H           5.0685    0.3321   -0.2398 H       1  UNL1        0.0626
     21 H           2.5504    2.5518   -1.6028 H       1  UNL1        0.1493
     22 H           2.5661    5.2985   -2.2642 H       1  UNL1        0.0499
     23 H           0.5547    4.1055   -1.5316 H       1  UNL1        0.0295
     24 H           0.5547    3.1912   -3.0206 H       1  UNL1        0.0295
     25 H           0.3117    5.2692   -4.2967 H       1  UNL1        0.0425
     26 H           0.3117    6.1835   -2.8077 H       1  UNL1        0.0425
     27 H          -1.6384    4.9993   -2.1284 H       1  UNL1        0.1219
     28 H          -2.3613    7.0203   -3.2834 H       1  UNL1        0.0425
     29 H          -2.9984    6.2588   -4.3855 H       1  UNL1        0.0425
     30 H           3.4261    5.0882   -4.5015 H       1  UNL1        0.0295
     31 H           3.0636    3.6092   -4.8057 H       1  UNL1        0.0295
     32 H           7.6624    2.5009   -1.5715 H       1  UNL1        0.0626
     33 H           2.9875   -1.9050    1.1339 H       1  UNL1        0.0636
@<TRIPOS>BOND
     1     1     2    1
     2     2     3   ar
     3     3     4   ar
     4     4     5   ar
     5     5     6    1
     6     6     7    2
     7     6     8   am
     8     8     9    1
     9     9    10    1
    10    10    11    1
    11    11    12    1
    12    12    13    1
    13    13    14    1
    14     9    14    1
    15     5    15   ar
    16    15    16   ar
    17     2    16   ar
    18     1    17    1
    19     1    18    1
    20     3    19    1
    21     4    20    1
    22     8    21    1
    23     9    22    1
    24    10    23    1
    25    10    24    1
    26    11    25    1
    27    11    26    1
    28    12    27    1
    29    13    28    1
    30    13    29    1
    31    14    30    1
    32    14    31    1
    33    15    32    1
    34    16    33    1
