@<TRIPOS>MOLECULE
*****
 39 39 0 0 0
SMALL
GASTEIGER

@<TRIPOS>ATOM
      1 N           1.0650   -0.0760   -0.0011 N.3     1  UNL1       -0.3279
      2 C           2.5350   -0.0760   -0.0011 C.3     1  UNL1        0.0166
      3 C           3.0416    0.9347   -1.0171 C.3     1  UNL1        0.0600
      4 O           4.4616    0.9347   -1.0171 O.3     1  UNL1       -0.3767
      5 C           4.9350    1.8790   -1.9661 C.3     1  UNL1        0.0673
      6 C           6.4550    1.8790   -1.9661 C.3     1  UNL1        0.0665
      7 N           6.9449    2.8565   -2.9486 N.ar    1  UNL1       -0.2492
      8 C           8.3143    3.0360   -3.1290 C.ar    1  UNL1        0.0487
      9 C           8.7944    3.9937   -4.0916 C.ar    1  UNL1        0.0828
     10 C           7.8066    4.8086   -4.9106 C.3     1  UNL1       -0.0071
     11 C           6.3881    4.4234   -4.5234 C.3     1  UNL1       -0.0475
     12 C           5.4004    5.2382   -5.3424 C.3     1  UNL1       -0.0506
     13 C           3.9819    4.8530   -4.9553 C.3     1  UNL1       -0.0297
     14 C           2.9942    5.6679   -5.7743 C.3     1  UNL1        0.0442
     15 O           1.6690    5.3080   -5.4126 O.3     1  UNL1       -0.3950
     16 N          10.1638    4.1732   -4.2720 N.ar    1  UNL1       -0.1345
     17 N           6.0706    3.5778   -3.6736 N.ar    1  UNL1       -0.0654
     18 H           0.7250   -0.7543    0.6806 H       1  UNL1        0.1183
     19 H           0.7250   -0.3273   -0.9294 H       1  UNL1        0.1183
     20 H           2.8916   -1.0511   -0.2598 H       1  UNL1        0.0444
     21 H           2.8916    0.1876    0.9726 H       1  UNL1        0.0444
     22 H           2.6850    1.9098   -0.7584 H       1  UNL1        0.0572
     23 H           2.6850    0.6712   -1.9908 H       1  UNL1        0.0572
     24 H           4.5783    2.8541   -1.7075 H       1  UNL1        0.0578
     25 H           4.5783    1.6154   -2.9399 H       1  UNL1        0.0578
     26 H           6.8116    0.9039   -2.2247 H       1  UNL1        0.0532
     27 H           6.8116    2.1426   -0.9924 H       1  UNL1        0.0532
     28 H           8.9849    2.4828   -2.5730 H       1  UNL1        0.0845
     29 H           7.9582    4.6116   -5.9513 H       1  UNL1        0.0329
     30 H           7.9582    5.8503   -4.7190 H       1  UNL1        0.0329
     31 H           6.2365    4.6203   -3.4827 H       1  UNL1        0.0269
     32 H           6.2365    3.3816   -4.7151 H       1  UNL1        0.0269
     33 H           5.5520    5.0413   -6.3832 H       1  UNL1        0.0266
     34 H           5.5520    6.2799   -5.1508 H       1  UNL1        0.0266
     35 H           3.8303    5.0499   -3.9145 H       1  UNL1        0.0287
     36 H           3.8303    3.8113   -5.1469 H       1  UNL1        0.0287
     37 H           3.1458    5.4709   -6.8150 H       1  UNL1        0.0557
     38 H           3.1458    6.7096   -5.5826 H       1  UNL1        0.0557
     39 H           1.5316    4.3636   -5.5863 H       1  UNL1        0.2094
@<TRIPOS>BOND
     1     1     2    1
     2     2     3    1
     3     3     4    1
     4     4     5    1
     5     5     6    1
     6     6     7    1
     7     7     8   ar
     8     8     9   ar
     9     9    10    1
    10    10    11    1
    11    11    12    1
    12    12    13    1
    13    13    14    1
    14    14    15    1
    15     9    16   ar
    16    16    17   ar
    17     7    17   ar
    18     1    18    1
    19     1    19    1
    20     2    20    1
    21     2    21    1
    22     3    22    1
    23     3    23    1
    24     5    24    1
    25     5    25    1
    26     6    26    1
    27     6    27    1
    28     8    28    1
    29    10    29    1
    30    10    30    1
    31    11    31    1
    32    11    32    1
    33    12    33    1
    34    12    34    1
    35    13    35    1
    36    13    36    1
    37    14    37    1
    38    14    38    1
    39    15    39    1
