@<TRIPOS>MOLECULE
*****
 37 36 0 0 0
SMALL
GASTEIGER

@<TRIPOS>ATOM
      1 C           1.0573    0.0812    0.0112 C.3     1  UNL1       -0.0653
      2 C           2.5773    0.0812    0.0112 C.3     1  UNL1       -0.0559
      3 C           3.0840    1.0069   -1.0828 C.3     1  UNL1       -0.0533
      4 C           4.6040    1.0069   -1.0828 C.3     1  UNL1       -0.0531
      5 C           5.1106    1.9326   -2.1768 C.3     1  UNL1       -0.0531
      6 C           6.6306    1.9326   -2.1768 C.3     1  UNL1       -0.0531
      7 C           7.1373    2.8583   -3.2708 C.3     1  UNL1       -0.0531
      8 C           8.6573    2.8583   -3.2708 C.3     1  UNL1       -0.0530
      9 C           9.1640    3.7839   -4.3647 C.3     1  UNL1       -0.0527
     10 C          10.6840    3.7839   -4.3647 C.3     1  UNL1       -0.0466
     11 C          11.1906    4.7096   -5.4587 C.3     1  UNL1        0.0028
     12 C          12.7106    4.7096   -5.4587 C.2     1  UNL1        0.1203
     13 O          13.3461    5.4206   -6.2989 O.2     1  UNL1       -0.3010
     14 H           0.7006   -0.5705    0.7813 H       1  UNL1        0.0230
     15 H           0.7006   -0.2599   -0.9382 H       1  UNL1        0.0230
     16 H           0.7006    1.0739    0.1905 H       1  UNL1        0.0230
     17 H           2.9340   -0.9116   -0.1681 H       1  UNL1        0.0263
     18 H           2.9340    0.4223    0.9606 H       1  UNL1        0.0263
     19 H           2.7273    1.9996   -0.9035 H       1  UNL1        0.0265
     20 H           2.7273    0.6658   -2.0322 H       1  UNL1        0.0265
     21 H           4.9606    0.0141   -1.2621 H       1  UNL1        0.0265
     22 H           4.9606    1.3480   -0.1334 H       1  UNL1        0.0265
     23 H           4.7540    2.9253   -1.9975 H       1  UNL1        0.0265
     24 H           4.7540    1.5915   -3.1262 H       1  UNL1        0.0265
     25 H           6.9873    0.9398   -2.3561 H       1  UNL1        0.0265
     26 H           6.9873    2.2737   -1.2274 H       1  UNL1        0.0265
     27 H           6.7806    3.8510   -3.0915 H       1  UNL1        0.0265
     28 H           6.7806    2.5171   -4.2201 H       1  UNL1        0.0265
     29 H           9.0140    1.8655   -3.4500 H       1  UNL1        0.0265
     30 H           9.0140    3.1994   -2.3214 H       1  UNL1        0.0265
     31 H           8.8073    4.7767   -4.1855 H       1  UNL1        0.0265
     32 H           8.8073    3.4428   -5.3141 H       1  UNL1        0.0265
     33 H          11.0406    2.7912   -4.5440 H       1  UNL1        0.0269
     34 H          11.0406    4.1251   -3.4154 H       1  UNL1        0.0269
     35 H          10.8339    5.7024   -5.2794 H       1  UNL1        0.0339
     36 H          10.8339    4.3685   -6.4081 H       1  UNL1        0.0339
     37 H          13.2266    4.1323   -4.7765 H       1  UNL1        0.1026
@<TRIPOS>BOND
     1     1     2    1
     2     2     3    1
     3     3     4    1
     4     4     5    1
     5     5     6    1
     6     6     7    1
     7     7     8    1
     8     8     9    1
     9     9    10    1
    10    10    11    1
    11    11    12    1
    12    12    13    2
    13     1    14    1
    14     1    15    1
    15     1    16    1
    16     2    17    1
    17     2    18    1
    18     3    19    1
    19     3    20    1
    20     4    21    1
    21     4    22    1
    22     5    23    1
    23     5    24    1
    24     6    25    1
    25     6    26    1
    26     7    27    1
    27     7    28    1
    28     8    29    1
    29     8    30    1
    30     9    31    1
    31     9    32    1
    32    10    33    1
    33    10    34    1
    34    11    35    1
    35    11    36    1
    36    12    37    1
