@<TRIPOS>MOLECULE
*****
 18 17 0 0 0
SMALL
GASTEIGER

@<TRIPOS>ATOM
      1 C           0.9991    0.0768    0.0640 C.3     1  UNL1       -0.0653
      2 C           2.5191    0.0768    0.0640 C.3     1  UNL1       -0.0558
      3 C           3.0257    0.7970    1.3030 C.3     1  UNL1       -0.0512
      4 C           4.5457    0.7970    1.3030 C.3     1  UNL1       -0.0297
      5 C           5.0524    1.5173    2.5419 C.3     1  UNL1        0.0442
      6 O           6.4724    1.5173    2.5419 O.3     1  UNL1       -0.3950
      7 H           0.6424   -0.4302   -0.8081 H       1  UNL1        0.0230
      8 H           0.6424    1.0856    0.0610 H       1  UNL1        0.0230
      9 H           0.6424   -0.4250    0.9392 H       1  UNL1        0.0230
     10 H           2.8757    0.5786   -0.8111 H       1  UNL1        0.0263
     11 H           2.8757   -0.9320    0.0670 H       1  UNL1        0.0263
     12 H           2.6690    0.2952    2.1781 H       1  UNL1        0.0266
     13 H           2.6690    1.8058    1.3000 H       1  UNL1        0.0266
     14 H           4.9024    1.2988    0.4278 H       1  UNL1        0.0287
     15 H           4.9024   -0.2118    1.3060 H       1  UNL1        0.0287
     16 H           4.6957    1.0155    3.4170 H       1  UNL1        0.0557
     17 H           4.6957    2.5261    2.5389 H       1  UNL1        0.0557
     18 H           6.7957    0.6027    2.5446 H       1  UNL1        0.2094
@<TRIPOS>BOND
     1     1     2    1
     2     2     3    1
     3     3     4    1
     4     4     5    1
     5     5     6    1
     6     1     7    1
     7     1     8    1
     8     1     9    1
     9     2    10    1
    10     2    11    1
    11     3    12    1
    12     3    13    1
    13     4    14    1
    14     4    15    1
    15     5    16    1
    16     5    17    1
    17     6    18    1
