@<TRIPOS>MOLECULE
*****
 28 29 0 0 0
SMALL
GASTEIGER

@<TRIPOS>ATOM
      1 C           0.9457    0.0834   -0.0098 C.3     1  UNL1        0.0087
      2 C           2.4657    0.0834   -0.0098 C.3     1  UNL1        0.0115
      3 N           2.9557    0.8018    1.1755 N.3     1  UNL1       -0.2996
      4 C           2.4657    0.1345    2.3902 C.3     1  UNL1        0.0041
      5 C           0.9457    0.1345    2.3902 C.3     1  UNL1       -0.0032
      6 C           0.4391   -0.5555    3.6462 C.3     1  UNL1        0.0011
      7 N          -1.0309   -0.5555    3.6462 N.3     1  UNL1       -0.3153
      8 C           0.4391   -0.6083    1.1646 C.3     1  UNL1        0.0011
      9 C           4.4257    0.8018    1.1755 C.3     1  UNL1        0.0115
     10 C           4.9324    1.5445    2.4010 C.3     1  UNL1        0.0087
     11 N           0.4558   -0.6349   -1.1950 N.3     1  UNL1       -0.3136
     12 H           0.5891    1.0920   -0.0312 H       1  UNL1        0.0437
     13 H           0.5891   -0.4023    0.8744 H       1  UNL1        0.0437
     14 H           2.8224    0.5692   -0.8940 H       1  UNL1        0.0439
     15 H           2.8224   -0.9251    0.0117 H       1  UNL1        0.0439
     16 H           2.8224    0.6573    3.2529 H       1  UNL1        0.0430
     17 H           2.8224   -0.8741    2.4116 H       1  UNL1        0.0430
     18 H           0.5891    1.1430    2.3687 H       1  UNL1        0.0338
     19 H           0.7957   -0.0327    4.5089 H       1  UNL1        0.0428
     20 H           0.7957   -1.5641    3.6676 H       1  UNL1        0.0428
     21 H          -1.5426    0.2833    3.9200 H       1  UNL1        0.1220
     22 H           0.0826   -0.0670    0.3132 H       1  UNL1        0.0428
     23 H           0.8204   -1.3663    0.5128 H       1  UNL1        0.0428
     24 H           4.7824    1.2875    0.2913 H       1  UNL1        0.0439
     25 H           4.7824   -0.2068    1.1969 H       1  UNL1        0.0439
     26 H           5.2701    2.5598    2.3906 H       1  UNL1        0.0437
     27 H           5.4344    1.4737    3.3433 H       1  UNL1        0.0437
     28 H           0.1339   -1.6027   -1.1851 H       1  UNL1        0.1220
@<TRIPOS>BOND
     1     1     2    1
     2     2     3    1
     3     3     4    1
     4     4     5    1
     5     5     6    1
     6     6     7    1
     7     7     8    1
     8     5     8    1
     9     3     9    1
    10     9    10    1
    11    10    11    1
    12     1    11    1
    13     1    12    1
    14     1    13    1
    15     2    14    1
    16     2    15    1
    17     4    16    1
    18     4    17    1
    19     5    18    1
    20     6    19    1
    21     6    20    1
    22     7    21    1
    23     8    22    1
    24     8    23    1
    25     9    24    1
    26     9    25    1
    27    10    26    1
    28    10    27    1
    29    11    28    1
