@<TRIPOS>MOLECULE
*****
 42 42 0 0 0
SMALL
GASTEIGER

@<TRIPOS>ATOM
      1 C           0.9715    0.0145   -0.0948 C.3     1  UNL1       -0.0652
      2 C           2.4915    0.0145   -0.0948 C.3     1  UNL1       -0.0545
      3 C           2.9982   -1.2877    0.5036 C.3     1  UNL1       -0.0376
      4 C           4.5182   -1.2877    0.5036 C.3     1  UNL1        0.0116
      5 N           5.0082   -2.5470    1.0823 N.am    1  UNL1       -0.3153
      6 C           6.4534   -2.7911    1.1944 C.2     1  UNL1        0.2131
      7 O           7.2793   -1.9133    0.7911 O.2     1  UNL1       -0.2758
      8 C           6.9601   -4.0933    1.7928 C.3     1  UNL1        0.0256
      9 C           8.4801   -4.0933    1.7928 C.3     1  UNL1       -0.0251
     10 C           8.9868   -5.3954    2.3911 C.3     1  UNL1        0.0436
     11 N          10.4568   -5.3954    2.3911 N.ar    1  UNL1       -0.2514
     12 C          11.1532   -6.4915    2.8947 C.ar    1  UNL1        0.0486
     13 C          12.5934   -6.4915    2.8947 C.ar    1  UNL1        0.0828
     14 C          13.3534   -5.2954    2.3451 C.3     1  UNL1       -0.0074
     15 C          12.3656   -4.2456    1.8627 C.3     1  UNL1       -0.0504
     16 C          13.1256   -3.0494    1.3131 C.3     1  UNL1       -0.0649
     17 N          13.2898   -7.5875    3.3984 N.ar    1  UNL1       -0.1345
     18 N          11.1295   -4.3367    1.9046 N.ar    1  UNL1       -0.0655
     19 H           0.6149    0.9312   -0.5160 H       1  UNL1        0.0230
     20 H           0.6149   -0.0790    0.9097 H       1  UNL1        0.0230
     21 H           0.6149   -0.8086   -0.6780 H       1  UNL1        0.0230
     22 H           2.8482    0.8376    0.4885 H       1  UNL1        0.0263
     23 H           2.8482    0.1081   -1.0992 H       1  UNL1        0.0263
     24 H           2.6415   -2.1108   -0.0797 H       1  UNL1        0.0280
     25 H           2.6415   -1.3812    1.5080 H       1  UNL1        0.0280
     26 H           4.8749   -0.4645    1.0868 H       1  UNL1        0.0462
     27 H           4.8749   -1.1941   -0.5009 H       1  UNL1        0.0462
     28 H           4.3684   -3.2270    1.3947 H       1  UNL1        0.1487
     29 H           6.6034   -4.9164    1.2095 H       1  UNL1        0.0359
     30 H           6.6034   -4.1868    2.7972 H       1  UNL1        0.0359
     31 H           8.8368   -3.2702    2.3760 H       1  UNL1        0.0287
     32 H           8.8368   -3.9997    0.7883 H       1  UNL1        0.0287
     33 H           8.6301   -6.2186    1.8078 H       1  UNL1        0.0509
     34 H           8.6301   -5.4890    3.3956 H       1  UNL1        0.0509
     35 H          10.6372   -7.3036    3.2679 H       1  UNL1        0.0845
     36 H          13.9685   -5.6086    1.5276 H       1  UNL1        0.0329
     37 H          13.9685   -4.8791    3.1153 H       1  UNL1        0.0329
     38 H          11.7505   -3.9323    2.6803 H       1  UNL1        0.0266
     39 H          11.7505   -4.6619    1.0926 H       1  UNL1        0.0266
     40 H          13.7408   -2.6332    2.0833 H       1  UNL1        0.0230
     41 H          12.4303   -2.3104    0.9736 H       1  UNL1        0.0230
     42 H          13.7408   -3.3627    0.4956 H       1  UNL1        0.0230
@<TRIPOS>BOND
     1     1     2    1
     2     2     3    1
     3     3     4    1
     4     4     5    1
     5     5     6   am
     6     6     7    2
     7     6     8    1
     8     8     9    1
     9     9    10    1
    10    10    11    1
    11    11    12   ar
    12    12    13   ar
    13    13    14    1
    14    14    15    1
    15    15    16    1
    16    13    17   ar
    17    17    18   ar
    18    11    18   ar
    19     1    19    1
    20     1    20    1
    21     1    21    1
    22     2    22    1
    23     2    23    1
    24     3    24    1
    25     3    25    1
    26     4    26    1
    27     4    27    1
    28     5    28    1
    29     8    29    1
    30     8    30    1
    31     9    31    1
    32     9    32    1
    33    10    33    1
    34    10    34    1
    35    12    35    1
    36    14    36    1
    37    14    37    1
    38    15    38    1
    39    15    39    1
    40    16    40    1
    41    16    41    1
    42    16    42    1
