@<TRIPOS>MOLECULE
*****
 19 18 0 0 0
SMALL
GASTEIGER

@<TRIPOS>ATOM
      1 C           0.9405   -0.0238   -0.0768 C.3     1  UNL1       -0.0653
      2 C           2.4605   -0.0238   -0.0768 C.3     1  UNL1       -0.0559
      3 C           2.9672   -1.3903   -0.5087 C.3     1  UNL1       -0.0522
      4 C           4.4872   -1.3903   -0.5087 C.3     1  UNL1       -0.0407
      5 C           4.9939   -2.7567   -0.9407 C.3     1  UNL1       -0.0069
      6 N           6.4639   -2.7567   -0.9407 N.3     1  UNL1       -0.3300
      7 H           0.5839    0.9380    0.2273 H       1  UNL1        0.0230
      8 H           0.5839   -0.7681    0.6042 H       1  UNL1        0.0230
      9 H           0.5839   -0.2415   -1.0618 H       1  UNL1        0.0230
     10 H           2.8172    0.1938    0.9083 H       1  UNL1        0.0263
     11 H           2.8172    0.7204   -0.7578 H       1  UNL1        0.0263
     12 H           2.6105   -1.6079   -1.4938 H       1  UNL1        0.0266
     13 H           2.6105   -2.1345    0.1722 H       1  UNL1        0.0266
     14 H           4.8439   -1.1727    0.4763 H       1  UNL1        0.0277
     15 H           4.8439   -0.6460   -1.1897 H       1  UNL1        0.0277
     16 H           4.6372   -2.9743   -1.9257 H       1  UNL1        0.0422
     17 H           4.6372   -3.5010   -0.2597 H       1  UNL1        0.0422
     18 H           6.8039   -2.0472   -1.5898 H       1  UNL1        0.1182
     19 H           6.8039   -3.6736   -1.2305 H       1  UNL1        0.1182
@<TRIPOS>BOND
     1     1     2    1
     2     2     3    1
     3     3     4    1
     4     4     5    1
     5     5     6    1
     6     1     7    1
     7     1     8    1
     8     1     9    1
     9     2    10    1
    10     2    11    1
    11     3    12    1
    12     3    13    1
    13     4    14    1
    14     4    15    1
    15     5    16    1
    16     5    17    1
    17     6    18    1
    18     6    19    1
