@<TRIPOS>MOLECULE
*****
 14 13 0 0 0
SMALL
GASTEIGER

@<TRIPOS>ATOM
      1 C           1.0916    0.0232   -0.0328 C.3     1  UNL1       -0.0653
      2 C           2.6116    0.0232   -0.0328 C.3     1  UNL1       -0.0562
      3 C           3.1182    1.3857   -0.4768 C.3     1  UNL1       -0.0562
      4 C           4.6382    1.3857   -0.4768 C.3     1  UNL1       -0.0653
      5 H           0.7349   -0.9360    0.2798 H       1  UNL1        0.0230
      6 H           0.7349    0.2321   -1.0197 H       1  UNL1        0.0230
      7 H           0.7349    0.7735    0.6416 H       1  UNL1        0.0230
      8 H           2.9683   -0.7271   -0.7071 H       1  UNL1        0.0263
      9 H           2.9683   -0.1857    0.9542 H       1  UNL1        0.0263
     10 H           2.7616    2.1360    0.1975 H       1  UNL1        0.0263
     11 H           2.7616    1.5946   -1.4638 H       1  UNL1        0.0263
     12 H           4.9949    1.1769    0.5101 H       1  UNL1        0.0230
     13 H           4.9949    2.3449   -0.7894 H       1  UNL1        0.0230
     14 H           4.9949    0.6355   -1.1512 H       1  UNL1        0.0230
@<TRIPOS>BOND
     1     1     2    1
     2     2     3    1
     3     3     4    1
     4     1     5    1
     5     1     6    1
     6     1     7    1
     7     2     8    1
     8     2     9    1
     9     3    10    1
    10     3    11    1
    11     4    12    1
    12     4    13    1
    13     4    14    1
