@<TRIPOS>MOLECULE
*****
 39 39 0 0 0
SMALL
GASTEIGER

@<TRIPOS>ATOM
      1 C           0.9698    0.0460    0.0835 C.3     1  UNL1       -0.0653
      2 C           2.4898    0.0460    0.0835 C.3     1  UNL1       -0.0559
      3 C           2.9965   -1.2884   -0.4390 C.3     1  UNL1       -0.0533
      4 C           4.5165   -1.2884   -0.4390 C.3     1  UNL1       -0.0531
      5 C           5.0231   -2.6229   -0.9615 C.3     1  UNL1       -0.0531
      6 C           6.5431   -2.6229   -0.9615 C.3     1  UNL1       -0.0530
      7 C           7.0498   -3.9573   -1.4839 C.3     1  UNL1       -0.0514
      8 C           8.5698   -3.9573   -1.4839 C.3     1  UNL1       -0.0333
      9 C           9.0765   -5.2917   -2.0064 C.3     1  UNL1        0.0432
     10 N          10.5465   -5.2917   -2.0064 N.ar    1  UNL1       -0.2510
     11 C          11.2429   -6.4149   -2.4462 C.ar    1  UNL1        0.0579
     12 C          12.6831   -6.4149   -2.4462 C.ar    1  UNL1        0.1666
     13 C          13.4431   -5.1892   -1.9663 C.2     1  UNL1        0.2632
     14 N          14.9131   -5.1892   -1.9663 N.am    1  UNL1       -0.3240
     15 O          12.8076   -4.1643   -1.5650 O.2     1  UNL1       -0.2686
     16 N          13.3795   -7.5381   -2.8859 N.ar    1  UNL1       -0.1248
     17 N          11.2192   -4.2067   -1.5816 N.ar    1  UNL1       -0.0650
     18 H           0.6131    0.9854    0.4513 H       1  UNL1        0.0230
     19 H           0.6131   -0.7422    0.7131 H       1  UNL1        0.0230
     20 H           0.6131   -0.1052   -0.9139 H       1  UNL1        0.0230
     21 H           2.8465    0.1972    1.0809 H       1  UNL1        0.0263
     22 H           2.8465    0.8342   -0.5461 H       1  UNL1        0.0263
     23 H           2.6398   -1.4396   -1.4364 H       1  UNL1        0.0265
     24 H           2.6398   -2.0766    0.1906 H       1  UNL1        0.0265
     25 H           4.8731   -1.1373    0.5584 H       1  UNL1        0.0265
     26 H           4.8731   -0.5002   -1.0686 H       1  UNL1        0.0265
     27 H           4.6665   -2.7740   -1.9589 H       1  UNL1        0.0265
     28 H           4.6665   -3.4111   -0.3318 H       1  UNL1        0.0265
     29 H           6.8998   -2.4717    0.0360 H       1  UNL1        0.0265
     30 H           6.8998   -1.8347   -1.5911 H       1  UNL1        0.0265
     31 H           6.6931   -4.1085   -2.4813 H       1  UNL1        0.0266
     32 H           6.6931   -4.7455   -0.8543 H       1  UNL1        0.0266
     33 H           8.9265   -3.8061   -0.4865 H       1  UNL1        0.0283
     34 H           8.9265   -3.1691   -2.1135 H       1  UNL1        0.0283
     35 H           8.7198   -5.4429   -3.0038 H       1  UNL1        0.0509
     36 H           8.7198   -6.0799   -1.3768 H       1  UNL1        0.0509
     37 H          10.7269   -7.2472   -2.7720 H       1  UNL1        0.0850
     38 H          15.4053   -5.9831   -2.2771 H       1  UNL1        0.1453
     39 H          15.4053   -4.3953   -1.6554 H       1  UNL1        0.1453
@<TRIPOS>BOND
     1     1     2    1
     2     2     3    1
     3     3     4    1
     4     4     5    1
     5     5     6    1
     6     6     7    1
     7     7     8    1
     8     8     9    1
     9     9    10    1
    10    10    11   ar
    11    11    12   ar
    12    12    13    1
    13    13    14   am
    14    13    15    2
    15    12    16   ar
    16    16    17   ar
    17    10    17   ar
    18     1    18    1
    19     1    19    1
    20     1    20    1
    21     2    21    1
    22     2    22    1
    23     3    23    1
    24     3    24    1
    25     4    25    1
    26     4    26    1
    27     5    27    1
    28     5    28    1
    29     6    29    1
    30     6    30    1
    31     7    31    1
    32     7    32    1
    33     8    33    1
    34     8    34    1
    35     9    35    1
    36     9    36    1
    37    11    37    1
    38    14    38    1
    39    14    39    1
