@<TRIPOS>MOLECULE
*****
 28 29 0 0 0
SMALL
GASTEIGER

@<TRIPOS>ATOM
      1 C           1.0808   -0.0060    0.0587 C.3     1  UNL1        0.0087
      2 C           2.6008   -0.0060    0.0587 C.3     1  UNL1        0.0115
      3 N           3.0907   -0.5931    1.3141 N.3     1  UNL1       -0.2996
      4 C           2.6007   -1.9739    1.4334 C.3     1  UNL1        0.0041
      5 C           1.0807   -1.9739    1.4334 C.3     1  UNL1       -0.0032
      6 C           0.5741   -3.4017    1.5567 C.3     1  UNL1        0.0011
      7 N          -0.8959   -3.4017    1.5567 N.3     1  UNL1       -0.3153
      8 C           0.5741   -1.3668    0.1352 C.3     1  UNL1        0.0011
      9 C           4.5607   -0.5931    1.3141 C.3     1  UNL1        0.0115
     10 C           5.0674   -1.2002    2.6122 C.3     1  UNL1        0.0087
     11 N           0.5908    0.5811   -1.1968 N.3     1  UNL1       -0.3136
     12 H           0.7241    0.5717    0.8857 H       1  UNL1        0.0437
     13 H           0.7241   -1.0111    0.1455 H       1  UNL1        0.0437
     14 H           2.9574    0.9990   -0.0281 H       1  UNL1        0.0439
     15 H           2.9574   -0.5837   -0.7683 H       1  UNL1        0.0439
     16 H           2.9574   -2.4013    2.3472 H       1  UNL1        0.0430
     17 H           2.9574   -2.5516    0.6064 H       1  UNL1        0.0430
     18 H           0.7241   -1.3962    2.2604 H       1  UNL1        0.0338
     19 H           0.9307   -3.8290    2.4705 H       1  UNL1        0.0428
     20 H           0.9307   -3.9794    0.7297 H       1  UNL1        0.0428
     21 H          -1.4075   -3.1638    2.4064 H       1  UNL1        0.1220
     22 H           0.2176   -0.3582    0.1128 H       1  UNL1        0.0428
     23 H           0.9554   -1.2455   -0.8571 H       1  UNL1        0.0428
     24 H           4.9174    0.4119    1.2273 H       1  UNL1        0.0439
     25 H           4.9174   -1.1709    0.4871 H       1  UNL1        0.0439
     26 H           5.4051   -0.6280    3.4510 H       1  UNL1        0.0437
     27 H           5.5694   -2.0233    3.0764 H       1  UNL1        0.0437
     28 H           0.2689    0.0356   -1.9963 H       1  UNL1        0.1220
@<TRIPOS>BOND
     1     1     2    1
     2     2     3    1
     3     3     4    1
     4     4     5    1
     5     5     6    1
     6     6     7    1
     7     7     8    1
     8     5     8    1
     9     3     9    1
    10     9    10    1
    11    10    11    1
    12     1    11    1
    13     1    12    1
    14     1    13    1
    15     2    14    1
    16     2    15    1
    17     4    16    1
    18     4    17    1
    19     5    18    1
    20     6    19    1
    21     6    20    1
    22     7    21    1
    23     8    22    1
    24     8    23    1
    25     9    24    1
    26     9    25    1
    27    10    26    1
    28    10    27    1
    29    11    28    1
