@<TRIPOS>MOLECULE
*****
 48 47 0 0 0
SMALL
GASTEIGER

@<TRIPOS>ATOM
      1 N           0.9073    0.0020   -0.0374 N.1     1  UNL1       -0.1908
      2 C           2.1682    0.0020   -0.0374 C.1     1  UNL1        0.1021
      3 C           3.6882    0.0020   -0.0374 C.2     1  UNL1        0.0891
      4 C           4.4482    1.0184    0.7991 C.2     1  UNL1        0.1601
      5 O           3.8128    1.8682    1.4986 O.2     1  UNL1       -0.2950
      6 C           4.3684   -0.9077   -0.7861 C.2     1  UNL1       -0.0382
      7 C           5.8884   -0.9077   -0.7861 C.3     1  UNL1        0.0675
      8 O           6.3618   -1.9414   -1.6368 O.3     1  UNL1       -0.3735
      9 C           7.7818   -1.9414   -1.6368 C.3     1  UNL1        0.0714
     10 C           8.2884   -3.0479   -2.5475 C.3     1  UNL1        0.0711
     11 O           9.7084   -3.0479   -2.5475 O.3     1  UNL1       -0.3752
     12 C          10.1818   -4.0816   -3.3983 C.3     1  UNL1        0.0711
     13 C          11.7018   -4.0816   -3.3983 C.3     1  UNL1        0.0711
     14 O          12.1751   -5.1153   -4.2491 O.3     1  UNL1       -0.3752
     15 C          13.5951   -5.1153   -4.2491 C.3     1  UNL1        0.0711
     16 C          14.1017   -6.2218   -5.1598 C.3     1  UNL1        0.0711
     17 O          15.5217   -6.2218   -5.1598 O.3     1  UNL1       -0.3752
     18 C          15.9951   -7.2555   -6.0105 C.3     1  UNL1        0.0711
     19 C          17.5151   -7.2555   -6.0105 C.3     1  UNL1        0.0711
     20 O          17.9884   -8.2892   -6.8613 O.3     1  UNL1       -0.3752
     21 C          19.4084   -8.2892   -6.8613 C.3     1  UNL1        0.0708
     22 C          19.9151   -9.3957   -7.7720 C.3     1  UNL1        0.0676
     23 O          21.3351   -9.3957   -7.7720 O.3     1  UNL1       -0.3927
     24 H           5.4802    1.0184    0.7991 H       1  UNL1        0.1089
     25 H           3.8524   -1.5978   -1.3540 H       1  UNL1        0.0608
     26 H           6.2451   -1.0734    0.2090 H       1  UNL1        0.0604
     27 H           6.2451    0.0370   -1.1401 H       1  UNL1        0.0604
     28 H           8.1384   -2.1071   -0.6417 H       1  UNL1        0.0583
     29 H           8.1384   -0.9968   -1.9909 H       1  UNL1        0.0583
     30 H           7.9318   -2.8822   -3.5426 H       1  UNL1        0.0583
     31 H           7.9318   -3.9925   -2.1935 H       1  UNL1        0.0583
     32 H           9.8251   -3.9159   -4.3934 H       1  UNL1        0.0583
     33 H           9.8251   -5.0262   -3.0443 H       1  UNL1        0.0583
     34 H          12.0584   -4.2473   -2.4032 H       1  UNL1        0.0583
     35 H          12.0584   -3.1370   -3.7523 H       1  UNL1        0.0583
     36 H          13.9518   -5.2810   -3.2540 H       1  UNL1        0.0583
     37 H          13.9518   -4.1707   -4.6031 H       1  UNL1        0.0583
     38 H          13.7451   -6.0561   -6.1549 H       1  UNL1        0.0583
     39 H          13.7451   -7.1665   -4.8057 H       1  UNL1        0.0583
     40 H          15.6384   -7.0898   -7.0056 H       1  UNL1        0.0583
     41 H          15.6384   -8.2002   -5.6565 H       1  UNL1        0.0583
     42 H          17.8717   -7.4212   -5.0154 H       1  UNL1        0.0583
     43 H          17.8717   -6.3109   -6.3645 H       1  UNL1        0.0583
     44 H          19.7651   -8.4549   -5.8662 H       1  UNL1        0.0583
     45 H          19.7651   -7.3446   -7.2153 H       1  UNL1        0.0583
     46 H          19.5584   -9.2300   -8.7671 H       1  UNL1        0.0580
     47 H          19.5584  -10.3404   -7.4180 H       1  UNL1        0.0580
     48 H          21.6584   -8.5394   -8.0929 H       1  UNL1        0.2095
@<TRIPOS>BOND
     1     1     2    3
     2     2     3    1
     3     3     4    1
     4     4     5    2
     5     3     6    2
     6     6     7    1
     7     7     8    1
     8     8     9    1
     9     9    10    1
    10    10    11    1
    11    11    12    1
    12    12    13    1
    13    13    14    1
    14    14    15    1
    15    15    16    1
    16    16    17    1
    17    17    18    1
    18    18    19    1
    19    19    20    1
    20    20    21    1
    21    21    22    1
    22    22    23    1
    23     4    24    1
    24     6    25    1
    25     7    26    1
    26     7    27    1
    27     9    28    1
    28     9    29    1
    29    10    30    1
    30    10    31    1
    31    12    32    1
    32    12    33    1
    33    13    34    1
    34    13    35    1
    35    15    36    1
    36    15    37    1
    37    16    38    1
    38    16    39    1
    39    18    40    1
    40    18    41    1
    41    19    42    1
    42    19    43    1
    43    21    44    1
    44    21    45    1
    45    22    46    1
    46    22    47    1
    47    23    48    1
