@<TRIPOS>MOLECULE
*****
 30 30 0 0 0
SMALL
GASTEIGER

@<TRIPOS>ATOM
      1 N           0.9376    0.0552   -0.0554 N.3     1  UNL1       -0.3279
      2 C           2.4076    0.0552   -0.0554 C.3     1  UNL1        0.0166
      3 C           2.9143    0.5876   -1.3859 C.3     1  UNL1        0.0600
      4 O           4.3343    0.5876   -1.3859 O.3     1  UNL1       -0.3763
      5 C           4.8076    1.0850   -2.6288 C.3     1  UNL1        0.0711
      6 C           6.3276    1.0850   -2.6288 C.3     1  UNL1        0.0711
      7 O           6.8009    1.5824   -3.8718 O.3     1  UNL1       -0.3757
      8 C           8.2209    1.5824   -3.8718 C.3     1  UNL1        0.0673
      9 C           8.7276    2.1148   -5.2023 C.3     1  UNL1        0.0665
     10 N          10.1976    2.1148   -5.2023 N.ar    1  UNL1       -0.2495
     11 C          10.8940    2.5630   -6.3222 C.ar    1  UNL1        0.0455
     12 C          12.3342    2.5630   -6.3222 C.ar    1  UNL1        0.0693
     13 N          13.0306    3.0111   -7.4420 N.ar    1  UNL1       -0.1380
     14 N          10.8703    1.6819   -4.1205 N.ar    1  UNL1       -0.0657
     15 H           0.5976   -0.3021    0.8375 H       1  UNL1        0.1183
     16 H           0.5976   -0.5394   -0.8112 H       1  UNL1        0.1183
     17 H           2.7643   -0.9434    0.0883 H       1  UNL1        0.0444
     18 H           2.7643    0.6789    0.7375 H       1  UNL1        0.0444
     19 H           2.5576    1.5861   -1.5296 H       1  UNL1        0.0572
     20 H           2.5576   -0.0361   -2.1787 H       1  UNL1        0.0572
     21 H           4.4509    2.0835   -2.7725 H       1  UNL1        0.0583
     22 H           4.4509    0.4613   -3.4217 H       1  UNL1        0.0583
     23 H           6.6843    0.0865   -2.4851 H       1  UNL1        0.0583
     24 H           6.6843    1.7087   -1.8359 H       1  UNL1        0.0583
     25 H           8.5776    0.5839   -3.7281 H       1  UNL1        0.0578
     26 H           8.5776    2.2061   -3.0789 H       1  UNL1        0.0578
     27 H           8.3709    3.1134   -5.3460 H       1  UNL1        0.0532
     28 H           8.3709    1.4911   -5.9952 H       1  UNL1        0.0532
     29 H          10.3780    2.8950   -7.1519 H       1  UNL1        0.0842
     30 H          12.8502    2.2309   -5.4924 H       1  UNL1        0.0864
@<TRIPOS>BOND
     1     1     2    1
     2     2     3    1
     3     3     4    1
     4     4     5    1
     5     5     6    1
     6     6     7    1
     7     7     8    1
     8     8     9    1
     9     9    10    1
    10    10    11   ar
    11    11    12   ar
    12    12    13   ar
    13    13    14   ar
    14    10    14   ar
    15     1    15    1
    16     1    16    1
    17     2    17    1
    18     2    18    1
    19     3    19    1
    20     3    20    1
    21     5    21    1
    22     5    22    1
    23     6    23    1
    24     6    24    1
    25     8    25    1
    26     8    26    1
    27     9    27    1
    28     9    28    1
    29    11    29    1
    30    12    30    1
