@<TRIPOS>MOLECULE
*****
 34 35 0 0 0
SMALL
GASTEIGER

@<TRIPOS>ATOM
      1 C           1.0541    0.0836   -0.0090 C.3     1  UNL1       -0.0038
      2 C           2.5741    0.0836   -0.0090 C.3     1  UNL1       -0.0364
      3 C           3.0808    0.1791    1.4209 C.3     1  UNL1       -0.0260
      4 C           2.5741   -1.0115    2.2185 C.3     1  UNL1        0.0019
      5 N           1.1041   -1.0115    2.2185 N.3     1  UNL1       -0.2997
      6 C           0.6141   -2.1629    2.9899 C.3     1  UNL1        0.0115
      7 C          -0.9059   -2.1629    2.9899 C.3     1  UNL1        0.0087
      8 N          -1.3959   -3.3143    3.7613 N.3     1  UNL1       -0.3136
      9 C          -2.8659   -3.3143    3.7613 C.3     1  UNL1        0.0087
     10 C           0.6141   -1.1038    0.8357 C.3     1  UNL1        0.0115
     11 C           4.6008    0.1791    1.4209 C.3     1  UNL1       -0.0364
     12 C           5.1074    0.2745    2.8508 C.3     1  UNL1       -0.0038
     13 N           0.5641   -0.0087   -1.3918 N.3     1  UNL1       -0.3160
     14 H           0.6974    0.9889    0.4361 H       1  UNL1        0.0424
     15 H           0.6974   -0.7545    0.5525 H       1  UNL1        0.0424
     16 H           2.9308    0.9217   -0.5704 H       1  UNL1        0.0281
     17 H           2.9308   -0.8217   -0.4541 H       1  UNL1        0.0281
     18 H           2.7241    1.0844    1.8660 H       1  UNL1        0.0314
     19 H           2.9308   -0.9443    3.2251 H       1  UNL1        0.0429
     20 H           2.9308   -1.9168    1.7735 H       1  UNL1        0.0429
     21 H           0.9708   -2.0957    3.9965 H       1  UNL1        0.0439
     22 H           0.9708   -3.0682    2.5448 H       1  UNL1        0.0439
     23 H          -1.2626   -2.2301    1.9833 H       1  UNL1        0.0437
     24 H          -1.2626   -1.2576    3.4350 H       1  UNL1        0.0437
     25 H          -1.0559   -3.2503    4.7208 H       1  UNL1        0.1220
     26 H          -3.4335   -2.7643    4.4825 H       1  UNL1        0.0437
     27 H          -3.6910   -3.9922    3.6934 H       1  UNL1        0.0437
     28 H           0.3424   -0.1930    0.3443 H       1  UNL1        0.0439
     29 H           1.1106   -1.4926   -0.0287 H       1  UNL1        0.0439
     30 H           4.9574    1.0172    0.8594 H       1  UNL1        0.0281
     31 H           4.9574   -0.7262    0.9758 H       1  UNL1        0.0281
     32 H           5.4456    1.1807    3.3085 H       1  UNL1        0.0424
     33 H           5.6101   -0.2221    3.6543 H       1  UNL1        0.0424
     34 H           0.2418   -0.8725   -1.8281 H       1  UNL1        0.1219
@<TRIPOS>BOND
     1     1     2    1
     2     2     3    1
     3     3     4    1
     4     4     5    1
     5     5     6    1
     6     6     7    1
     7     7     8    1
     8     8     9    1
     9     9    10    1
    10     5    10    1
    11     3    11    1
    12    11    12    1
    13    12    13    1
    14     1    13    1
    15     1    14    1
    16     1    15    1
    17     2    16    1
    18     2    17    1
    19     3    18    1
    20     4    19    1
    21     4    20    1
    22     6    21    1
    23     6    22    1
    24     7    23    1
    25     7    24    1
    26     8    25    1
    27     9    26    1
    28     9    27    1
    29    10    28    1
    30    10    29    1
    31    11    30    1
    32    11    31    1
    33    12    32    1
    34    12    33    1
    35    13    34    1
