@<TRIPOS>MOLECULE
*****
 12 11 0 0 0
SMALL
GASTEIGER

@<TRIPOS>ATOM
      1 C           1.0268    0.0916   -0.0300 C.3     1  UNL1       -0.0632
      2 C           2.5468    0.0916   -0.0300 C.3     1  UNL1       -0.0326
      3 C           3.0534    1.0063   -1.1331 C.3     1  UNL1        0.0440
      4 O           4.4734    1.0063   -1.1331 O.3     1  UNL1       -0.3950
      5 H           0.6701   -0.5523    0.7466 H       1  UNL1        0.0230
      6 H           0.6701   -0.2590   -0.9759 H       1  UNL1        0.0230
      7 H           0.6701    1.0861    0.1394 H       1  UNL1        0.0230
      8 H           2.9034   -0.9029   -0.1993 H       1  UNL1        0.0285
      9 H           2.9034    0.4422    0.9160 H       1  UNL1        0.0285
     10 H           2.6967    2.0008   -0.9638 H       1  UNL1        0.0557
     11 H           2.6967    0.6557   -2.0791 H       1  UNL1        0.0557
     12 H           4.7967    1.3241   -0.2756 H       1  UNL1        0.2094
@<TRIPOS>BOND
     1     1     2    1
     2     2     3    1
     3     3     4    1
     4     1     5    1
     5     1     6    1
     6     1     7    1
     7     2     8    1
     8     2     9    1
     9     3    10    1
    10     3    11    1
    11     4    12    1
