@<TRIPOS>MOLECULE
*****
 28 27 0 0 0
SMALL
GASTEIGER

@<TRIPOS>ATOM
      1 C           0.9767    0.0079    0.0969 C.3     1  UNL1       -0.0652
      2 C           2.4967    0.0079    0.0969 C.3     1  UNL1       -0.0538
      3 C           3.0034   -1.2817   -0.5281 C.3     1  UNL1       -0.0297
      4 C           4.5234   -1.2817   -0.5281 C.3     1  UNL1        0.0477
      5 O           4.9967   -2.4864   -1.1120 O.3     1  UNL1       -0.3798
      6 C           6.4167   -2.4864   -1.1120 C.3     1  UNL1        0.0477
      7 C           6.9234   -3.7760   -1.7370 C.3     1  UNL1       -0.0274
      8 C           8.4434   -3.7760   -1.7370 C.3     1  UNL1       -0.0276
      9 C           8.9500   -5.0656   -2.3620 C.3     1  UNL1        0.0443
     10 O          10.3700   -5.0656   -2.3620 O.3     1  UNL1       -0.3950
     11 H           0.6200    0.9157    0.5369 H       1  UNL1        0.0230
     12 H           0.6200   -0.8270    0.6631 H       1  UNL1        0.0230
     13 H           0.6200   -0.0649   -0.9092 H       1  UNL1        0.0230
     14 H           2.8534    0.0808    1.1031 H       1  UNL1        0.0263
     15 H           2.8534    0.8429   -0.4693 H       1  UNL1        0.0263
     16 H           2.6467   -1.3545   -1.5343 H       1  UNL1        0.0287
     17 H           2.6467   -2.1166    0.0381 H       1  UNL1        0.0287
     18 H           4.8800   -1.2088    0.4781 H       1  UNL1        0.0560
     19 H           4.8800   -0.4467   -1.0943 H       1  UNL1        0.0560
     20 H           6.7734   -2.4135   -0.1058 H       1  UNL1        0.0560
     21 H           6.7734   -1.6515   -1.6782 H       1  UNL1        0.0560
     22 H           6.5667   -3.8489   -2.7432 H       1  UNL1        0.0288
     23 H           6.5667   -4.6109   -1.1708 H       1  UNL1        0.0288
     24 H           8.8000   -3.7031   -0.7308 H       1  UNL1        0.0288
     25 H           8.8000   -2.9411   -2.3032 H       1  UNL1        0.0288
     26 H           8.5933   -5.1385   -3.3682 H       1  UNL1        0.0557
     27 H           8.5933   -5.9005   -1.7958 H       1  UNL1        0.0557
     28 H          10.6933   -4.3087   -2.8753 H       1  UNL1        0.2094
@<TRIPOS>BOND
     1     1     2    1
     2     2     3    1
     3     3     4    1
     4     4     5    1
     5     5     6    1
     6     6     7    1
     7     7     8    1
     8     8     9    1
     9     9    10    1
    10     1    11    1
    11     1    12    1
    12     1    13    1
    13     2    14    1
    14     2    15    1
    15     3    16    1
    16     3    17    1
    17     4    18    1
    18     4    19    1
    19     6    20    1
    20     6    21    1
    21     7    22    1
    22     7    23    1
    23     8    24    1
    24     8    25    1
    25     9    26    1
    26     9    27    1
    27    10    28    1
