@<TRIPOS>MOLECULE
*****
 28 27 0 0 0
SMALL
GASTEIGER

@<TRIPOS>ATOM
      1 C           0.9470   -0.0475   -0.0703 C.3     1  UNL1        0.0486
      2 N           2.4170   -0.0475   -0.0703 N.pl3   1  UNL1       -0.2341
      3 C           3.1520   -1.0745   -0.8225 C.3     1  UNL1        0.0547
      4 C           2.1643   -2.0066   -1.5051 C.3     1  UNL1        0.0650
      5 O           2.8743   -2.9988   -2.2317 O.3     1  UNL1       -0.3759
      6 C           1.9515   -3.8695   -2.8694 C.3     1  UNL1        0.0711
      7 C           2.7115   -4.9316   -3.6472 C.3     1  UNL1        0.0710
      8 O           1.7888   -5.8023   -4.2849 O.3     1  UNL1       -0.3778
      9 C           2.4988   -6.7945   -5.0115 C.3     1  UNL1        0.0449
     10 C           1.5110   -7.7266   -5.6941 C.3     1  UNL1       -0.0416
     11 N           3.1270    0.9447    0.6563 N.2     1  UNL1       -0.0868
     12 N           4.3979    0.9447    0.6563 N.2     1  UNL1       -0.1875
     13 H           0.5904   -0.8613   -0.6664 H       1  UNL1        0.0496
     14 H           0.5904    0.8757   -0.4771 H       1  UNL1        0.0496
     15 H           3.7672   -1.6365   -0.1511 H       1  UNL1        0.0503
     16 H           3.7672   -0.6041   -1.5608 H       1  UNL1        0.0503
     17 H           1.5491   -1.4447   -2.1765 H       1  UNL1        0.0576
     18 H           1.5491   -2.4771   -0.7668 H       1  UNL1        0.0576
     19 H           1.3364   -3.3076   -3.5408 H       1  UNL1        0.0583
     20 H           1.3364   -4.3400   -2.1311 H       1  UNL1        0.0583
     21 H           3.3267   -5.4935   -2.9758 H       1  UNL1        0.0583
     22 H           3.3267   -4.4611   -4.3855 H       1  UNL1        0.0583
     23 H           3.1139   -7.3564   -4.3401 H       1  UNL1        0.0557
     24 H           3.1139   -6.3240   -5.7498 H       1  UNL1        0.0557
     25 H           0.8959   -8.1970   -4.9557 H       1  UNL1        0.0252
     26 H           2.0460   -8.4742   -6.2416 H       1  UNL1        0.0252
     27 H           0.8959   -7.1646   -6.3654 H       1  UNL1        0.0252
     28 H           4.8902    1.6326    1.1600 H       1  UNL1        0.2134
@<TRIPOS>BOND
     1     1     2    1
     2     2     3    1
     3     3     4    1
     4     4     5    1
     5     5     6    1
     6     6     7    1
     7     7     8    1
     8     8     9    1
     9     9    10    1
    10     2    11    1
    11    11    12    2
    12     1    13    1
    13     1    14    1
    14     3    15    1
    15     3    16    1
    16     4    17    1
    17     4    18    1
    18     6    19    1
    19     6    20    1
    20     7    21    1
    21     7    22    1
    22     9    23    1
    23     9    24    1
    24    10    25    1
    25    10    26    1
    26    10    27    1
    27    12    28    1
