@<TRIPOS>MOLECULE
*****
 28 28 0 0 0
SMALL
GASTEIGER

@<TRIPOS>ATOM
      1 C           1.0597    0.0500   -0.0628 C.3     1  UNL1       -0.0652
      2 C           2.5797    0.0500   -0.0628 C.3     1  UNL1       -0.0548
      3 C           3.0863    0.9446    1.0567 C.3     1  UNL1       -0.0405
      4 C           4.6063    0.9446    1.0567 C.3     1  UNL1       -0.0010
      5 N           5.0963    1.8099    2.1394 N.3     1  UNL1       -0.2999
      6 C           6.5663    1.8099    2.1394 C.3     1  UNL1        0.0115
      7 C           7.0730    2.7045    3.2589 C.3     1  UNL1        0.0087
      8 N           8.5430    2.7045    3.2589 N.3     1  UNL1       -0.3136
      9 C           9.0330    3.5697    4.3416 C.3     1  UNL1        0.0087
     10 C           4.6063    1.3048    3.4300 C.3     1  UNL1        0.0115
     11 H           0.7030   -0.5798   -0.8509 H       1  UNL1        0.0230
     12 H           0.7030    1.0474   -0.2142 H       1  UNL1        0.0230
     13 H           0.7030   -0.3176    0.8767 H       1  UNL1        0.0230
     14 H           2.9363    0.4176   -1.0022 H       1  UNL1        0.0263
     15 H           2.9363   -0.9474    0.0886 H       1  UNL1        0.0263
     16 H           2.7297    0.5770    1.9962 H       1  UNL1        0.0277
     17 H           2.7297    1.9420    0.9053 H       1  UNL1        0.0277
     18 H           4.9630    1.3122    0.1173 H       1  UNL1        0.0426
     19 H           4.9630   -0.0528    1.2081 H       1  UNL1        0.0426
     20 H           6.9230    2.1774    1.1999 H       1  UNL1        0.0439
     21 H           6.9230    0.8125    2.2908 H       1  UNL1        0.0439
     22 H           6.7163    2.3369    4.1983 H       1  UNL1        0.0437
     23 H           6.7163    3.7019    3.1075 H       1  UNL1        0.0437
     24 H           8.8830    3.0549    2.3633 H       1  UNL1        0.1220
     25 H           9.1698    4.6226    4.2089 H       1  UNL1        0.0437
     26 H           9.8033    3.6072    5.0832 H       1  UNL1        0.0437
     27 H           3.7256    1.7562    3.8368 H       1  UNL1        0.0439
     28 H           4.2917    0.3155    3.6889 H       1  UNL1        0.0439
@<TRIPOS>BOND
     1     1     2    1
     2     2     3    1
     3     3     4    1
     4     4     5    1
     5     5     6    1
     6     6     7    1
     7     7     8    1
     8     8     9    1
     9     9    10    1
    10     5    10    1
    11     1    11    1
    12     1    12    1
    13     1    13    1
    14     2    14    1
    15     2    15    1
    16     3    16    1
    17     3    17    1
    18     4    18    1
    19     4    19    1
    20     6    20    1
    21     6    21    1
    22     7    22    1
    23     7    23    1
    24     8    24    1
    25     9    25    1
    26     9    26    1
    27    10    27    1
    28    10    28    1
