@<TRIPOS>MOLECULE
*****
 71 73 0 0 0
SMALL
GASTEIGER

@<TRIPOS>ATOM
      1 N           0.9565    0.0558    0.0707 N.3     1  UNL1       -0.3279
      2 C           2.4265    0.0558    0.0707 C.3     1  UNL1        0.0166
      3 C           2.9332    1.4694   -0.1646 C.3     1  UNL1        0.0600
      4 O           4.3532    1.4694   -0.1646 O.3     1  UNL1       -0.3763
      5 C           4.8265    2.7900   -0.3845 C.3     1  UNL1        0.0711
      6 C           6.3465    2.7900   -0.3845 C.3     1  UNL1        0.0711
      7 O           6.8198    4.1106   -0.6043 O.3     1  UNL1       -0.3757
      8 C           8.2398    4.1106   -0.6043 C.3     1  UNL1        0.0673
      9 C           8.7465    5.5242   -0.8397 C.3     1  UNL1        0.0665
     10 N          10.2165    5.5242   -0.8397 N.ar    1  UNL1       -0.2492
     11 C          10.9129    6.7141   -1.0378 C.ar    1  UNL1        0.0487
     12 C          12.3531    6.7141   -1.0378 C.ar    1  UNL1        0.0828
     13 C          13.1131    5.4156   -0.8216 C.3     1  UNL1       -0.0071
     14 C          12.1253    4.2759   -0.6319 C.3     1  UNL1       -0.0461
     15 C          12.8853    2.9775   -0.4157 C.3     1  UNL1       -0.0367
     16 C          11.8976    1.8378   -0.2260 C.3     1  UNL1        0.0165
     17 N          12.6326    0.5821   -0.0169 N.am    1  UNL1       -0.2811
     18 C          14.1026    0.5821   -0.0169 C.3     1  UNL1        0.0412
     19 C          14.6093    1.9957   -0.2523 C.ar    1  UNL1       -0.0301
     20 C          16.0252    2.2553   -0.2955 C.ar    1  UNL1       -0.0571
     21 C          16.5053    3.5947   -0.5184 C.ar    1  UNL1       -0.0615
     22 C          17.9212    3.8543   -0.5617 C.ar    1  UNL1       -0.0617
     23 C          18.4013    5.1937   -0.7846 C.ar    1  UNL1       -0.0615
     24 C          13.6734    3.0755   -0.4320 C.ar    1  UNL1       -0.0571
     25 C          11.8976   -0.6737    0.1921 C.2     1  UNL1        0.3067
     26 O          10.6267   -0.6737    0.1921 O.2     1  UNL1       -0.2523
     27 N          12.6326   -1.9295    0.4012 N.am    1  UNL1       -0.2693
     28 C          11.8976   -3.1853    0.6103 C.ar    1  UNL1        0.0348
     29 C          12.6177   -4.4156    0.8151 C.ar    1  UNL1       -0.0404
     30 C          11.8976   -5.6459    1.0199 C.ar    1  UNL1       -0.0600
     31 C          12.6177   -6.8762    1.2247 C.ar    1  UNL1       -0.0616
     32 C          11.8976   -8.1065    1.4295 C.ar    1  UNL1       -0.0600
     33 C          10.4574   -3.1853    0.6103 C.ar    1  UNL1       -0.0404
     34 N          13.0495    7.9039   -1.2358 N.ar    1  UNL1       -0.1345
     35 N          10.8892    4.3748   -0.6483 N.ar    1  UNL1       -0.0654
     36 H           0.6165   -0.8929    0.2286 H       1  UNL1        0.1183
     37 H           0.6165    0.3933   -0.8298 H       1  UNL1        0.1183
     38 H           2.7832   -0.5853   -0.7083 H       1  UNL1        0.0444
     39 H           2.7832   -0.2983    1.0153 H       1  UNL1        0.0444
     40 H           2.5765    2.1104    0.6143 H       1  UNL1        0.0572
     41 H           2.5765    1.8235   -1.1093 H       1  UNL1        0.0572
     42 H           4.4698    3.4310    0.3945 H       1  UNL1        0.0583
     43 H           4.4698    3.1441   -1.3291 H       1  UNL1        0.0583
     44 H           6.7032    2.1490   -1.1634 H       1  UNL1        0.0583
     45 H           6.7032    2.4359    0.5601 H       1  UNL1        0.0583
     46 H           8.5965    3.4696   -1.3833 H       1  UNL1        0.0578
     47 H           8.5965    3.7565    0.3403 H       1  UNL1        0.0578
     48 H           8.3898    6.1652   -0.0607 H       1  UNL1        0.0532
     49 H           8.3898    5.8783   -1.7843 H       1  UNL1        0.0532
     50 H          10.3969    7.5957   -1.1845 H       1  UNL1        0.0845
     51 H          13.7282    5.5031    0.0495 H       1  UNL1        0.0329
     52 H          13.7282    5.2162   -1.6741 H       1  UNL1        0.0329
     53 H          11.5102    4.1884   -1.5030 H       1  UNL1        0.0269
     54 H          11.5102    4.4753    0.2206 H       1  UNL1        0.0269
     55 H          13.5005    3.0650    0.4554 H       1  UNL1        0.0280
     56 H          13.5005    2.7781   -1.2682 H       1  UNL1        0.0280
     57 H          11.2824    1.7503   -1.0971 H       1  UNL1        0.0465
     58 H          11.2824    2.0372    0.6265 H       1  UNL1        0.0465
     59 H          14.4593   -0.0590   -0.7959 H       1  UNL1        0.0514
     60 H          14.4593    0.2280    0.9277 H       1  UNL1        0.0514
     61 H          16.6958    1.4815   -0.1667 H       1  UNL1        0.0621
     62 H          15.8346    4.3684   -0.6473 H       1  UNL1        0.0618
     63 H          18.5918    3.0805   -0.4329 H       1  UNL1        0.0618
     64 H          19.0988    5.9439   -0.9095 H       1  UNL1        0.0618
     65 H          12.6659    3.2962   -0.4688 H       1  UNL1        0.0621
     66 H          13.6171   -1.9295    0.4012 H       1  UNL1        0.1564
     67 H          13.6497   -4.4156    0.8151 H       1  UNL1        0.0636
     68 H          10.8656   -5.6459    1.0199 H       1  UNL1        0.0618
     69 H          13.6497   -6.8762    1.2247 H       1  UNL1        0.0618
     70 H          11.7727   -9.1171    1.5978 H       1  UNL1        0.0618
     71 H           9.6326   -2.5734    0.5084 H       1  UNL1        0.0636
@<TRIPOS>BOND
     1     1     2    1
     2     2     3    1
     3     3     4    1
     4     4     5    1
     5     5     6    1
     6     6     7    1
     7     7     8    1
     8     8     9    1
     9     9    10    1
    10    10    11   ar
    11    11    12   ar
    12    12    13    1
    13    13    14    1
    14    14    15    1
    15    15    16    1
    16    16    17    1
    17    17    18    1
    18    18    19    1
    19    19    20   ar
    20    20    21   ar
    21    21    22   ar
    22    22    23   ar
    23    23    24   ar
    24    19    24   ar
    25    17    25   am
    26    25    26    2
    27    25    27   am
    28    27    28    1
    29    28    29   ar
    30    29    30   ar
    31    30    31   ar
    32    31    32   ar
    33    32    33   ar
    34    28    33   ar
    35    12    34   ar
    36    34    35   ar
    37    10    35   ar
    38     1    36    1
    39     1    37    1
    40     2    38    1
    41     2    39    1
    42     3    40    1
    43     3    41    1
    44     5    42    1
    45     5    43    1
    46     6    44    1
    47     6    45    1
    48     8    46    1
    49     8    47    1
    50     9    48    1
    51     9    49    1
    52    11    50    1
    53    13    51    1
    54    13    52    1
    55    14    53    1
    56    14    54    1
    57    15    55    1
    58    15    56    1
    59    16    57    1
    60    16    58    1
    61    18    59    1
    62    18    60    1
    63    20    61    1
    64    21    62    1
    65    22    63    1
    66    23    64    1
    67    24    65    1
    68    27    66    1
    69    29    67    1
    70    30    68    1
    71    31    69    1
    72    32    70    1
    73    33    71    1
