@<TRIPOS>MOLECULE
*****
 17 16 0 0 0
SMALL
GASTEIGER

@<TRIPOS>ATOM
      1 C           1.0048    0.0984    0.0174 C.3     1  UNL1       -0.0653
      2 C           2.5248    0.0984    0.0174 C.3     1  UNL1       -0.0559
      3 C           3.0314   -0.8433   -1.0628 C.3     1  UNL1       -0.0536
      4 C           4.5514   -0.8433   -1.0628 C.3     1  UNL1       -0.0559
      5 C           5.0581   -1.7850   -2.1431 C.3     1  UNL1       -0.0653
      6 H           0.6481    0.7613    0.7778 H       1  UNL1        0.0230
      7 H           0.6481   -0.8916    0.2113 H       1  UNL1        0.0230
      8 H           0.6481    0.4255   -0.9369 H       1  UNL1        0.0230
      9 H           2.8814   -0.2287    0.9717 H       1  UNL1        0.0263
     10 H           2.8814    1.0884   -0.1765 H       1  UNL1        0.0263
     11 H           2.6748   -0.5162   -2.0171 H       1  UNL1        0.0265
     12 H           2.6748   -1.8333   -0.8689 H       1  UNL1        0.0265
     13 H           4.9081   -1.1704   -0.1085 H       1  UNL1        0.0263
     14 H           4.9081    0.1467   -1.2567 H       1  UNL1        0.0263
     15 H           4.7014   -2.7750   -1.9492 H       1  UNL1        0.0230
     16 H           6.1281   -1.7850   -2.1431 H       1  UNL1        0.0230
     17 H           4.7014   -1.4579   -3.0974 H       1  UNL1        0.0230
@<TRIPOS>BOND
     1     1     2    1
     2     2     3    1
     3     3     4    1
     4     4     5    1
     5     1     6    1
     6     1     7    1
     7     1     8    1
     8     2     9    1
     9     2    10    1
    10     3    11    1
    11     3    12    1
    12     4    13    1
    13     4    14    1
    14     5    15    1
    15     5    16    1
    16     5    17    1
