@<TRIPOS>MOLECULE
*****
 29 28 0 0 0
SMALL
GASTEIGER

@<TRIPOS>ATOM
      1 C           1.0023   -0.0610    0.0792 C.3     1  UNL1       -0.0632
      2 C           2.5223   -0.0610    0.0792 C.3     1  UNL1       -0.0323
      3 C           3.0290    1.2549    0.6467 C.3     1  UNL1        0.0474
      4 O           4.4490    1.2549    0.6467 O.3     1  UNL1       -0.3793
      5 C           4.9223    2.4842    1.1769 C.3     1  UNL1        0.0559
      6 C           6.4423    2.4842    1.1769 C.3     1  UNL1        0.0473
      7 C           6.9490    3.8001    1.7444 C.2     1  UNL1        0.2153
      8 O           6.1231    4.6871    2.1270 O.2     1  UNL1       -0.2757
      9 N           8.3942    4.0467    1.8508 N.am    1  UNL1       -0.3131
     10 C           8.8842    5.3194    2.3997 C.3     1  UNL1        0.0348
     11 C          10.4042    5.3194    2.3997 C.3     1  UNL1        0.0597
     12 O          10.8775    6.5487    2.9299 O.3     1  UNL1       -0.3935
     13 H           0.6457   -0.9874   -0.3203 H       1  UNL1        0.0230
     14 H           0.6456    0.7481   -0.5233 H       1  UNL1        0.0230
     15 H           0.6456    0.0561    1.0811 H       1  UNL1        0.0230
     16 H           2.8790   -0.1782   -0.9228 H       1  UNL1        0.0285
     17 H           2.8790   -0.8702    0.6816 H       1  UNL1        0.0285
     18 H           2.6723    1.3720    1.6487 H       1  UNL1        0.0560
     19 H           2.6723    2.0640    0.0442 H       1  UNL1        0.0560
     20 H           4.5656    2.6014    2.1789 H       1  UNL1        0.0564
     21 H           4.5656    3.2933    0.5744 H       1  UNL1        0.0564
     22 H           6.7990    2.3670    0.1749 H       1  UNL1        0.0381
     23 H           6.7990    1.6750    1.7794 H       1  UNL1        0.0381
     24 H           9.0340    3.3596    1.5545 H       1  UNL1        0.1488
     25 H           8.5275    5.4365    3.4017 H       1  UNL1        0.0484
     26 H           8.5275    6.1285    1.7972 H       1  UNL1        0.0484
     27 H          10.7609    5.2022    1.3977 H       1  UNL1        0.0573
     28 H          10.7609    4.5102    3.0021 H       1  UNL1        0.0573
     29 H          10.5542    7.2822    2.3837 H       1  UNL1        0.2095
@<TRIPOS>BOND
     1     1     2    1
     2     2     3    1
     3     3     4    1
     4     4     5    1
     5     5     6    1
     6     6     7    1
     7     7     8    2
     8     7     9   am
     9     9    10    1
    10    10    11    1
    11    11    12    1
    12     1    13    1
    13     1    14    1
    14     1    15    1
    15     2    16    1
    16     2    17    1
    17     3    18    1
    18     3    19    1
    19     5    20    1
    20     5    21    1
    21     6    22    1
    22     6    23    1
    23     9    24    1
    24    10    25    1
    25    10    26    1
    26    11    27    1
    27    11    28    1
    28    12    29    1
