@<TRIPOS>MOLECULE
*****
 33 32 0 0 0
SMALL
GASTEIGER

@<TRIPOS>ATOM
      1 C           0.9025    0.0221    0.0018 C.3     1  UNL1        0.0365
      2 O           2.3225    0.0221    0.0018 O.3     1  UNL1       -0.3807
      3 C           2.7958   -0.8020   -1.0532 C.3     1  UNL1        0.0706
      4 C           4.3158   -0.8020   -1.0532 C.3     1  UNL1        0.0711
      5 O           4.7891   -1.6262   -2.1083 O.3     1  UNL1       -0.3752
      6 C           6.2091   -1.6262   -2.1083 C.3     1  UNL1        0.0711
      7 C           6.7158   -2.5084   -3.2377 C.3     1  UNL1        0.0711
      8 O           8.1358   -2.5084   -3.2377 O.3     1  UNL1       -0.3760
      9 C           8.6091   -3.3325   -4.2927 C.3     1  UNL1        0.0632
     10 C          10.1291   -3.3325   -4.2927 C.3     1  UNL1        0.0350
     11 N          10.6191   -4.1857   -5.3849 N.am    1  UNL1       -0.3133
     12 C          12.0644   -4.3510   -5.5966 C.2     1  UNL1        0.2100
     13 C          13.0521   -3.6398   -4.6862 C.3     1  UNL1        0.0121
     14 O          12.4880   -5.0886   -6.5409 O.2     1  UNL1       -0.2761
     15 H           0.5458    0.6431    0.7968 H       1  UNL1        0.0524
     16 H           0.5458   -0.9769    0.1421 H       1  UNL1        0.0524
     17 H           0.5458    0.4001   -0.9335 H       1  UNL1        0.0524
     18 H           2.4391   -0.4240   -1.9886 H       1  UNL1        0.0582
     19 H           2.4391   -1.8010   -0.9129 H       1  UNL1        0.0582
     20 H           4.6725   -1.1800   -0.1179 H       1  UNL1        0.0583
     21 H           4.6725    0.1970   -1.1935 H       1  UNL1        0.0583
     22 H           6.5658   -2.0042   -1.1730 H       1  UNL1        0.0583
     23 H           6.5658   -0.6272   -2.2486 H       1  UNL1        0.0583
     24 H           6.3591   -2.1304   -4.1730 H       1  UNL1        0.0583
     25 H           6.3591   -3.5074   -3.0974 H       1  UNL1        0.0583
     26 H           8.2525   -2.9545   -5.2280 H       1  UNL1        0.0575
     27 H           8.2525   -4.3315   -4.1524 H       1  UNL1        0.0575
     28 H          10.4858   -3.7105   -3.3574 H       1  UNL1        0.0484
     29 H          10.4858   -2.3335   -4.4330 H       1  UNL1        0.0484
     30 H           9.9794   -4.6463   -5.9747 H       1  UNL1        0.1488
     31 H          12.5171   -3.0694   -3.9559 H       1  UNL1        0.0322
     32 H          13.6673   -2.9862   -5.2686 H       1  UNL1        0.0322
     33 H          13.6673   -4.3632   -4.1930 H       1  UNL1        0.0322
@<TRIPOS>BOND
     1     1     2    1
     2     2     3    1
     3     3     4    1
     4     4     5    1
     5     5     6    1
     6     6     7    1
     7     7     8    1
     8     8     9    1
     9     9    10    1
    10    10    11    1
    11    11    12   am
    12    12    13    1
    13    12    14    2
    14     1    15    1
    15     1    16    1
    16     1    17    1
    17     3    18    1
    18     3    19    1
    19     4    20    1
    20     4    21    1
    21     6    22    1
    22     6    23    1
    23     7    24    1
    24     7    25    1
    25     9    26    1
    26     9    27    1
    27    10    28    1
    28    10    29    1
    29    11    30    1
    30    13    31    1
    31    13    32    1
    32    13    33    1
