@<TRIPOS>MOLECULE
*****
 34 34 0 0 0
SMALL
GASTEIGER

@<TRIPOS>ATOM
      1 C           0.9738    0.0938   -0.0226 C.3     1  UNL1       -0.0632
      2 C           2.4938    0.0938   -0.0226 C.3     1  UNL1       -0.0323
      3 C           3.0004    1.5165    0.1496 C.3     1  UNL1        0.0475
      4 O           4.4204    1.5165    0.1496 O.3     1  UNL1       -0.3780
      5 C           4.8938    2.8456    0.3104 C.3     1  UNL1        0.0672
      6 C           6.4138    2.8456    0.3104 C.3     1  UNL1        0.0665
      7 N           6.9037    4.2215    0.4770 N.ar    1  UNL1       -0.2492
      8 C           8.2731    4.4742    0.5075 C.ar    1  UNL1        0.0487
      9 C           8.7532    5.8221    0.6707 C.ar    1  UNL1        0.0829
     10 C           7.7654    6.9691    0.8095 C.3     1  UNL1       -0.0051
     11 C           6.3469    6.4269    0.7439 C.3     1  UNL1       -0.0242
     12 C           5.3592    7.5738    0.8827 C.3     1  UNL1        0.0446
     13 O           4.0340    7.0673    0.8214 O.3     1  UNL1       -0.3950
     14 N          10.1226    6.0748    0.7013 N.ar    1  UNL1       -0.1345
     15 N           6.0294    5.2367    0.5998 N.ar    1  UNL1       -0.0654
     16 H           0.6171   -0.9077   -0.1438 H       1  UNL1        0.0230
     17 H           0.6171    0.6995   -0.8293 H       1  UNL1        0.0230
     18 H           0.6171    0.4896    0.9053 H       1  UNL1        0.0230
     19 H           2.8504   -0.3020   -0.9505 H       1  UNL1        0.0285
     20 H           2.8504   -0.5119    0.7841 H       1  UNL1        0.0285
     21 H           2.6438    1.9123    1.0775 H       1  UNL1        0.0560
     22 H           2.6438    2.1222   -0.6571 H       1  UNL1        0.0560
     23 H           4.5371    3.2414    1.2384 H       1  UNL1        0.0578
     24 H           4.5371    3.4513   -0.4963 H       1  UNL1        0.0578
     25 H           6.7704    2.4498   -0.6175 H       1  UNL1        0.0532
     26 H           6.7704    2.2399    1.1172 H       1  UNL1        0.0532
     27 H           8.9437    3.6954    0.4133 H       1  UNL1        0.0845
     28 H           7.9170    7.6686    0.0141 H       1  UNL1        0.0330
     29 H           7.9170    7.4587    1.7488 H       1  UNL1        0.0330
     30 H           6.1953    5.7274    1.5393 H       1  UNL1        0.0291
     31 H           6.1953    5.9373   -0.1954 H       1  UNL1        0.0291
     32 H           5.5108    8.2734    0.0873 H       1  UNL1        0.0557
     33 H           5.5108    8.0634    1.8220 H       1  UNL1        0.0557
     34 H           3.8966    6.6235   -0.0301 H       1  UNL1        0.2094
@<TRIPOS>BOND
     1     1     2    1
     2     2     3    1
     3     3     4    1
     4     4     5    1
     5     5     6    1
     6     6     7    1
     7     7     8   ar
     8     8     9   ar
     9     9    10    1
    10    10    11    1
    11    11    12    1
    12    12    13    1
    13     9    14   ar
    14    14    15   ar
    15     7    15   ar
    16     1    16    1
    17     1    17    1
    18     1    18    1
    19     2    19    1
    20     2    20    1
    21     3    21    1
    22     3    22    1
    23     5    23    1
    24     5    24    1
    25     6    25    1
    26     6    26    1
    27     8    27    1
    28    10    28    1
    29    10    29    1
    30    11    30    1
    31    11    31    1
    32    12    32    1
    33    12    33    1
    34    13    34    1
