@<TRIPOS>MOLECULE
*****
 30 29 0 0 0
SMALL
GASTEIGER

@<TRIPOS>ATOM
      1 C           1.0462   -0.0687    0.0560 C.3     1  UNL1        0.0121
      2 C           2.5662   -0.0687    0.0560 C.2     1  UNL1        0.2100
      3 O           3.2017   -1.1045   -0.3161 O.2     1  UNL1       -0.2761
      4 N           3.3012    1.1294    0.4865 N.am    1  UNL1       -0.3133
      5 C           4.7712    1.1294    0.4865 C.3     1  UNL1        0.0350
      6 C           5.2779    2.4780    0.9710 C.3     1  UNL1        0.0632
      7 O           6.6979    2.4780    0.9710 O.3     1  UNL1       -0.3760
      8 C           7.1712    3.7380    1.4237 C.3     1  UNL1        0.0711
      9 C           8.6912    3.7380    1.4237 C.3     1  UNL1        0.0711
     10 O           9.1646    4.9979    1.8764 O.3     1  UNL1       -0.3752
     11 C          10.5846    4.9979    1.8764 C.3     1  UNL1        0.0708
     12 C          11.0912    6.3466    2.3609 C.3     1  UNL1        0.0676
     13 O          12.5112    6.3466    2.3609 O.3     1  UNL1       -0.3927
     14 H           0.6896   -1.0181   -0.2851 H       1  UNL1        0.0322
     15 H           0.6896    0.7014   -0.5956 H       1  UNL1        0.0322
     16 H           0.6896    0.1106    1.0488 H       1  UNL1        0.0322
     17 H           2.8090    1.9317    0.7748 H       1  UNL1        0.1488
     18 H           5.1279    0.9501   -0.5063 H       1  UNL1        0.0484
     19 H           5.1279    0.3593    1.1381 H       1  UNL1        0.0484
     20 H           4.9212    2.6573    1.9638 H       1  UNL1        0.0575
     21 H           4.9212    3.2481    0.3194 H       1  UNL1        0.0575
     22 H           6.8146    3.9173    2.4164 H       1  UNL1        0.0583
     23 H           6.8146    4.5081    0.7721 H       1  UNL1        0.0583
     24 H           9.0479    3.5587    0.4310 H       1  UNL1        0.0583
     25 H           9.0479    2.9679    2.0753 H       1  UNL1        0.0583
     26 H          10.9412    4.8186    0.8836 H       1  UNL1        0.0583
     27 H          10.9412    4.2278    2.5280 H       1  UNL1        0.0583
     28 H          10.7345    6.5259    3.3537 H       1  UNL1        0.0580
     29 H          10.7345    7.1167    1.7093 H       1  UNL1        0.0580
     30 H          12.8345    5.6484    2.9517 H       1  UNL1        0.2095
@<TRIPOS>BOND
     1     1     2    1
     2     2     3    2
     3     2     4   am
     4     4     5    1
     5     5     6    1
     6     6     7    1
     7     7     8    1
     8     8     9    1
     9     9    10    1
    10    10    11    1
    11    11    12    1
    12    12    13    1
    13     1    14    1
    14     1    15    1
    15     1    16    1
    16     4    17    1
    17     5    18    1
    18     5    19    1
    19     6    20    1
    20     6    21    1
    21     8    22    1
    22     8    23    1
    23     9    24    1
    24     9    25    1
    25    11    26    1
    26    11    27    1
    27    12    28    1
    28    12    29    1
    29    13    30    1
