@<TRIPOS>MOLECULE
*****
 41 40 0 0 0
SMALL
GASTEIGER

@<TRIPOS>ATOM
      1 C           1.0500   -0.0809   -0.0309 C.3     1  UNL1       -0.0653
      2 C           2.5700   -0.0809   -0.0309 C.3     1  UNL1       -0.0559
      3 C           3.0767    0.1522    1.3831 C.3     1  UNL1       -0.0533
      4 C           4.5967    0.1522    1.3831 C.3     1  UNL1       -0.0526
      5 C           5.1033    0.3853    2.7971 C.3     1  UNL1       -0.0448
      6 C           6.6233    0.3853    2.7971 C.3     1  UNL1        0.0241
      7 C           7.1300    0.6184    4.2111 C.2     1  UNL1        0.2154
      8 O           6.3041    0.7756    5.1642 O.2     1  UNL1       -0.2756
      9 N           8.5753    0.6621    4.4761 N.am    1  UNL1       -0.3033
     10 C           9.5305    0.4804    3.3737 C.3     1  UNL1        0.0032
     11 C           9.0653    0.8876    5.8436 C.3     1  UNL1        0.0271
     12 C          10.5853    0.8876    5.8436 C.3     1  UNL1        0.0141
     13 N          11.0752    1.1130    7.2111 N.3     1  UNL1       -0.3069
     14 C          10.5852    0.0415    8.0900 C.3     1  UNL1       -0.0130
     15 C          12.5452    1.1130    7.2111 C.3     1  UNL1       -0.0130
     16 H           0.6934   -0.2450   -1.0262 H       1  UNL1        0.0230
     17 H           0.6934    0.8632    0.3247 H       1  UNL1        0.0230
     18 H           0.6934   -0.8609    0.6089 H       1  UNL1        0.0230
     19 H           2.9267    0.6991   -0.6707 H       1  UNL1        0.0263
     20 H           2.9267   -1.0250   -0.3864 H       1  UNL1        0.0263
     21 H           2.7200   -0.6277    2.0229 H       1  UNL1        0.0265
     22 H           2.7200    1.0963    1.7387 H       1  UNL1        0.0265
     23 H           4.9534    0.9322    0.7433 H       1  UNL1        0.0265
     24 H           4.9534   -0.7918    1.0275 H       1  UNL1        0.0265
     25 H           4.7467   -0.3946    3.4369 H       1  UNL1        0.0270
     26 H           4.7467    1.3294    3.1527 H       1  UNL1        0.0270
     27 H           6.9800    1.1653    2.1573 H       1  UNL1        0.0358
     28 H           6.9800   -0.5587    2.4415 H       1  UNL1        0.0358
     29 H           8.9955    0.3297    2.4594 H       1  UNL1        0.0428
     30 H          10.1457   -0.3724    3.5717 H       1  UNL1        0.0428
     31 H          10.1457    1.3516    3.2875 H       1  UNL1        0.0428
     32 H           8.7086    0.1076    6.4834 H       1  UNL1        0.0477
     33 H           8.7086    1.8316    6.1992 H       1  UNL1        0.0477
     34 H          10.9419    1.6675    5.2038 H       1  UNL1        0.0442
     35 H          10.9419   -0.0565    5.4880 H       1  UNL1        0.0442
     36 H           9.5152    0.0415    8.0900 H       1  UNL1        0.0391
     37 H          10.9419    0.2056    9.0854 H       1  UNL1        0.0391
     38 H          10.9419   -0.9026    7.7345 H       1  UNL1        0.0391
     39 H          12.9019    1.8930    6.5713 H       1  UNL1        0.0391
     40 H          12.9019    0.1690    6.8555 H       1  UNL1        0.0391
     41 H          12.9019    1.2771    8.2064 H       1  UNL1        0.0391
@<TRIPOS>BOND
     1     1     2    1
     2     2     3    1
     3     3     4    1
     4     4     5    1
     5     5     6    1
     6     6     7    1
     7     7     8    2
     8     7     9   am
     9     9    10    1
    10     9    11    1
    11    11    12    1
    12    12    13    1
    13    13    14    1
    14    13    15    1
    15     1    16    1
    16     1    17    1
    17     1    18    1
    18     2    19    1
    19     2    20    1
    20     3    21    1
    21     3    22    1
    22     4    23    1
    23     4    24    1
    24     5    25    1
    25     5    26    1
    26     6    27    1
    27     6    28    1
    28    10    29    1
    29    10    30    1
    30    10    31    1
    31    11    32    1
    32    11    33    1
    33    12    34    1
    34    12    35    1
    35    14    36    1
    36    14    37    1
    37    14    38    1
    38    15    39    1
    39    15    40    1
    40    15    41    1
