@<TRIPOS>MOLECULE
*****
 29 29 0 0 0
SMALL
GASTEIGER

@<TRIPOS>ATOM
      1 N           0.9064    0.0251    0.0246 N.am    1  UNL1       -0.3278
      2 C           2.3764    0.0251    0.0246 C.2     1  UNL1        0.2320
      3 O           3.0118   -0.7017   -0.8020 O.2     1  UNL1       -0.2740
      4 C           3.1364    0.8942    1.0132 C.3     1  UNL1        0.1190
      5 N           4.5816    0.7169    0.8115 N.ar    1  UNL1       -0.2426
      6 C           5.4867    1.4159    1.6066 C.ar    1  UNL1        0.0492
      7 C           6.9027    1.2421    1.4089 C.ar    1  UNL1        0.0829
      8 C           7.4093    0.2959    0.3326 C.3     1  UNL1       -0.0071
      9 C           6.2271   -0.3349   -0.3849 C.3     1  UNL1       -0.0472
     10 C           6.7338   -1.2811   -1.4612 C.3     1  UNL1       -0.0463
     11 C           5.5515   -1.9119   -2.1787 C.3     1  UNL1        0.0028
     12 C           6.0582   -2.8582   -3.2549 C.2     1  UNL1        0.1203
     13 O           5.2323   -3.4960   -3.9804 O.2     1  UNL1       -0.3010
     14 N           7.8078    1.9411    2.2040 N.ar    1  UNL1       -0.1345
     15 N           5.0301   -0.1207   -0.1412 N.ar    1  UNL1       -0.0650
     16 H           0.4141   -0.5379   -0.6157 H       1  UNL1        0.1450
     17 H           0.4141    0.5880    0.6649 H       1  UNL1        0.1450
     18 H           2.8779    0.6085    2.0115 H       1  UNL1        0.0605
     19 H           2.8779    1.9208    0.8578 H       1  UNL1        0.0605
     20 H           5.1427    2.0583    2.3373 H       1  UNL1        0.0845
     21 H           8.0038   -0.4713    0.7832 H       1  UNL1        0.0329
     22 H           8.0038    0.8410   -0.3705 H       1  UNL1        0.0329
     23 H           5.6327    0.4322   -0.8354 H       1  UNL1        0.0269
     24 H           5.6327   -0.8800    0.3182 H       1  UNL1        0.0269
     25 H           7.3282   -2.0483   -1.0106 H       1  UNL1        0.0269
     26 H           7.3282   -0.7360   -2.1643 H       1  UNL1        0.0269
     27 H           4.9571   -1.1448   -2.6292 H       1  UNL1        0.0339
     28 H           4.9571   -2.4571   -1.4755 H       1  UNL1        0.0339
     29 H           7.0728   -2.9827   -3.3966 H       1  UNL1        0.1026
@<TRIPOS>BOND
     1     1     2   am
     2     2     3    2
     3     2     4    1
     4     4     5    1
     5     5     6   ar
     6     6     7   ar
     7     7     8    1
     8     8     9    1
     9     9    10    1
    10    10    11    1
    11    11    12    1
    12    12    13    2
    13     7    14   ar
    14    14    15   ar
    15     5    15   ar
    16     1    16    1
    17     1    17    1
    18     4    18    1
    19     4    19    1
    20     6    20    1
    21     8    21    1
    22     8    22    1
    23     9    23    1
    24     9    24    1
    25    10    25    1
    26    10    26    1
    27    11    27    1
    28    11    28    1
    29    12    29    1
