@<TRIPOS>MOLECULE
*****
 37 38 0 0 0
SMALL
GASTEIGER

@<TRIPOS>ATOM
      1 C           1.0432   -0.0876    0.0213 C.3     1  UNL1       -0.0641
      2 C           2.5632   -0.0876    0.0213 C.3     1  UNL1       -0.0431
      3 C           3.0699   -1.2467   -0.8213 C.3     1  UNL1       -0.0012
      4 N           4.5399   -1.2467   -0.8213 N.3     1  UNL1       -0.2994
      5 C           5.0299   -2.3677   -1.6363 C.3     1  UNL1        0.0147
      6 C           6.5499   -2.3677   -1.6363 C.3     1  UNL1        0.0250
      7 N           7.0399   -3.4887   -2.4513 N.pl3   1  UNL1       -0.3275
      8 C           6.0846   -4.3925   -3.1083 C.ar    1  UNL1        0.0298
      9 C           4.6687   -4.1796   -2.9535 C.ar    1  UNL1       -0.0400
     10 C           3.7328   -5.0650   -3.5972 C.ar    1  UNL1       -0.0498
     11 C           2.3168   -4.8521   -3.4425 C.ar    1  UNL1        0.0143
     12 C           1.8102   -3.6930   -2.5998 C.2     1  UNL1        0.1502
     13 O           2.6360   -2.9117   -2.0318 O.2     1  UNL1       -0.2957
     14 C           1.3809   -5.7375   -4.0862 C.ar    1  UNL1       -0.0498
     15 C           6.5647   -5.4907   -3.9067 C.ar    1  UNL1       -0.0400
     16 C           8.4851   -3.7060   -2.6092 C.3     1  UNL1        0.0250
     17 C           5.0299   -1.3920    0.5570 C.3     1  UNL1        0.0147
     18 H           0.6866    0.7284    0.6146 H       1  UNL1        0.0230
     19 H           0.6866   -1.0093    0.4314 H       1  UNL1        0.0230
     20 H           0.6866    0.0181   -0.9819 H       1  UNL1        0.0230
     21 H           2.9199   -0.1934    1.0246 H       1  UNL1        0.0275
     22 H           2.9199    0.8341   -0.3887 H       1  UNL1        0.0275
     23 H           2.7132   -1.1410   -1.8246 H       1  UNL1        0.0426
     24 H           2.7132   -2.1685   -0.4113 H       1  UNL1        0.0426
     25 H           4.6732   -2.2620   -2.6396 H       1  UNL1        0.0442
     26 H           4.6732   -3.2894   -1.2263 H       1  UNL1        0.0442
     27 H           6.9065   -2.4735   -0.6331 H       1  UNL1        0.0476
     28 H           6.9065   -1.4460   -2.0463 H       1  UNL1        0.0476
     29 H           4.3247   -3.3926   -2.3814 H       1  UNL1        0.0636
     30 H           4.0768   -5.8520   -4.1694 H       1  UNL1        0.0625
     31 H           0.7955   -3.5405   -2.4889 H       1  UNL1        0.1081
     32 H           0.4567   -6.1089   -4.3562 H       1  UNL1        0.0625
     33 H           7.4245   -5.9524   -4.2424 H       1  UNL1        0.0636
     34 H           9.0820   -3.1663   -3.3144 H       1  UNL1        0.0476
     35 H           9.2383   -4.4651   -2.6468 H       1  UNL1        0.0476
     36 H           5.3401   -0.5069    1.0720 H       1  UNL1        0.0442
     37 H           4.5293   -1.7837    1.4177 H       1  UNL1        0.0442
@<TRIPOS>BOND
     1     1     2    1
     2     2     3    1
     3     3     4    1
     4     4     5    1
     5     5     6    1
     6     6     7    1
     7     7     8    1
     8     8     9   ar
     9     9    10   ar
    10    10    11   ar
    11    11    12    1
    12    12    13    2
    13    11    14   ar
    14    14    15   ar
    15     8    15   ar
    16     7    16    1
    17    16    17    1
    18     4    17    1
    19     1    18    1
    20     1    19    1
    21     1    20    1
    22     2    21    1
    23     2    22    1
    24     3    23    1
    25     3    24    1
    26     5    25    1
    27     5    26    1
    28     6    27    1
    29     6    28    1
    30     9    29    1
    31    10    30    1
    32    12    31    1
    33    14    32    1
    34    15    33    1
    35    16    34    1
    36    16    35    1
    37    17    36    1
    38    17    37    1
