@<TRIPOS>MOLECULE
*****
 23 22 0 0 0
SMALL
GASTEIGER

@<TRIPOS>ATOM
      1 C           1.0740   -0.0632    0.0230 C.3     1  UNL1       -0.0653
      2 C           2.5940   -0.0632    0.0230 C.3     1  UNL1       -0.0559
      3 C           3.1007   -1.0062   -1.0561 C.3     1  UNL1       -0.0533
      4 C           4.6207   -1.0062   -1.0561 C.3     1  UNL1       -0.0531
      5 C           5.1274   -1.9492   -2.1351 C.3     1  UNL1       -0.0533
      6 C           6.6474   -1.9492   -2.1351 C.3     1  UNL1       -0.0559
      7 C           7.1540   -2.8923   -3.2142 C.3     1  UNL1       -0.0653
      8 H           0.7174    0.6007    0.7826 H       1  UNL1        0.0230
      9 H           0.7174   -1.0529    0.2181 H       1  UNL1        0.0230
     10 H           0.7174    0.2628   -0.9317 H       1  UNL1        0.0230
     11 H           2.9507   -0.3891    0.9777 H       1  UNL1        0.0263
     12 H           2.9507    0.9266   -0.1721 H       1  UNL1        0.0263
     13 H           2.7440   -0.6803   -2.0108 H       1  UNL1        0.0265
     14 H           2.7440   -1.9959   -0.8610 H       1  UNL1        0.0265
     15 H           4.9774   -1.3321   -0.1014 H       1  UNL1        0.0265
     16 H           4.9774   -0.0164   -1.2512 H       1  UNL1        0.0265
     17 H           4.7707   -1.6233   -3.0898 H       1  UNL1        0.0265
     18 H           4.7707   -2.9390   -1.9400 H       1  UNL1        0.0265
     19 H           7.0040   -2.2751   -1.1804 H       1  UNL1        0.0263
     20 H           7.0040   -0.9595   -2.3302 H       1  UNL1        0.0263
     21 H           6.7974   -3.8820   -3.0191 H       1  UNL1        0.0230
     22 H           8.2240   -2.8923   -3.2142 H       1  UNL1        0.0230
     23 H           6.7974   -2.5664   -4.1689 H       1  UNL1        0.0230
@<TRIPOS>BOND
     1     1     2    1
     2     2     3    1
     3     3     4    1
     4     4     5    1
     5     5     6    1
     6     6     7    1
     7     1     8    1
     8     1     9    1
     9     1    10    1
    10     2    11    1
    11     2    12    1
    12     3    13    1
    13     3    14    1
    14     4    15    1
    15     4    16    1
    16     5    17    1
    17     5    18    1
    18     6    19    1
    19     6    20    1
    20     7    21    1
    21     7    22    1
    22     7    23    1
