@<TRIPOS>MOLECULE
*****
 21 20 0 0 0
SMALL
GASTEIGER

@<TRIPOS>ATOM
      1 N           1.0947    0.0315   -0.0069 N.3     1  UNL1       -0.3300
      2 C           2.5647    0.0315   -0.0069 C.3     1  UNL1       -0.0069
      3 C           3.0713   -1.4005    0.0495 C.3     1  UNL1       -0.0406
      4 C           4.5913   -1.4005    0.0495 C.3     1  UNL1       -0.0508
      5 C           5.0980   -2.8324    0.1058 C.3     1  UNL1       -0.0406
      6 C           6.6180   -2.8324    0.1058 C.3     1  UNL1       -0.0069
      7 N           7.1080   -4.2173    0.1603 N.3     1  UNL1       -0.3300
      8 H           0.7547    0.9924   -0.0447 H       1  UNL1        0.1182
      9 H           0.7547   -0.4162    0.8442 H       1  UNL1        0.1182
     10 H           2.9213    0.5699    0.8463 H       1  UNL1        0.0422
     11 H           2.9213    0.5012   -0.8997 H       1  UNL1        0.0422
     12 H           2.7147   -1.9388   -0.8037 H       1  UNL1        0.0277
     13 H           2.7147   -1.8701    0.9423 H       1  UNL1        0.0277
     14 H           4.9480   -0.8621    0.9026 H       1  UNL1        0.0266
     15 H           4.9480   -0.9308   -0.8433 H       1  UNL1        0.0266
     16 H           4.7413   -3.3708   -0.7473 H       1  UNL1        0.0277
     17 H           4.7413   -3.3021    0.9986 H       1  UNL1        0.0277
     18 H           6.9746   -2.2941    0.9590 H       1  UNL1        0.0422
     19 H           6.9747   -2.3628   -0.7870 H       1  UNL1        0.0422
     20 H           6.7680   -4.6650    1.0114 H       1  UNL1        0.1182
     21 H           8.1280   -4.2173    0.1603 H       1  UNL1        0.1182
@<TRIPOS>BOND
     1     1     2    1
     2     2     3    1
     3     3     4    1
     4     4     5    1
     5     5     6    1
     6     6     7    1
     7     1     8    1
     8     1     9    1
     9     2    10    1
    10     2    11    1
    11     3    12    1
    12     3    13    1
    13     4    14    1
    14     4    15    1
    15     5    16    1
    16     5    17    1
    17     6    18    1
    18     6    19    1
    19     7    20    1
    20     7    21    1
