@<TRIPOS>MOLECULE
*****
 27 27 0 0 0
SMALL
GASTEIGER

@<TRIPOS>ATOM
      1 C           0.9953    0.0065    0.0997 C.3     1  UNL1       -0.0454
      2 C           2.5153    0.0065    0.0997 C.3     1  UNL1        0.0404
      3 N           3.0053    1.2228   -0.5648 N.ar    1  UNL1       -0.2517
      4 C           4.3746    1.4461   -0.6868 C.ar    1  UNL1        0.0486
      5 C           4.8547    2.6378   -1.3377 C.ar    1  UNL1        0.0829
      6 C           3.8669    3.6517   -1.8916 C.3     1  UNL1       -0.0067
      7 C           2.4484    3.1724   -1.6298 C.3     1  UNL1       -0.0393
      8 C           1.4607    4.1863   -2.1837 C.3     1  UNL1        0.0241
      9 C           0.0422    3.7070   -1.9218 C.2     1  UNL1        0.2105
     10 N          -0.1863    2.4326   -1.2257 N.am    1  UNL1       -0.3293
     11 O          -0.9463    4.4080   -2.3048 O.2     1  UNL1       -0.2760
     12 N           6.2241    2.8611   -1.4598 N.ar    1  UNL1       -0.1345
     13 N           2.1309    2.1202   -1.0550 N.ar    1  UNL1       -0.0655
     14 H           0.6386   -0.8788    0.5833 H       1  UNL1        0.0247
     15 H           0.6386    0.0303   -0.9088 H       1  UNL1        0.0247
     16 H           0.6386    0.8680    0.6246 H       1  UNL1        0.0247
     17 H           2.8719   -0.8550   -0.4252 H       1  UNL1        0.0506
     18 H           2.8719   -0.0173    1.1082 H       1  UNL1        0.0506
     19 H           5.0453    0.7578   -0.3107 H       1  UNL1        0.0845
     20 H           4.0185    3.7584   -2.9454 H       1  UNL1        0.0329
     21 H           4.0185    4.5961   -1.4120 H       1  UNL1        0.0329
     22 H           2.2968    3.0656   -0.5760 H       1  UNL1        0.0273
     23 H           2.2968    2.2280   -2.1094 H       1  UNL1        0.0273
     24 H           1.6123    4.2930   -3.2375 H       1  UNL1        0.0358
     25 H           1.6123    5.1307   -1.7041 H       1  UNL1        0.0358
     26 H           0.5795    1.8895   -0.9290 H       1  UNL1        0.1449
     27 H          -1.1050    2.1221   -1.0561 H       1  UNL1        0.1449
@<TRIPOS>BOND
     1     1     2    1
     2     2     3    1
     3     3     4   ar
     4     4     5   ar
     5     5     6    1
     6     6     7    1
     7     7     8    1
     8     8     9    1
     9     9    10   am
    10     9    11    2
    11     5    12   ar
    12    12    13   ar
    13     3    13   ar
    14     1    14    1
    15     1    15    1
    16     1    16    1
    17     2    17    1
    18     2    18    1
    19     4    19    1
    20     6    20    1
    21     6    21    1
    22     7    22    1
    23     7    23    1
    24     8    24    1
    25     8    25    1
    26    10    26    1
    27    10    27    1
