@<TRIPOS>MOLECULE
*****
 9 8 0 0 0
SMALL
GASTEIGER

@<TRIPOS>ATOM
      1 C           0.9429   -0.0277   -0.0773 C.3     1  UNL1        0.0119
      2 C           2.4629   -0.0277   -0.0773 C.2     1  UNL1        0.2074
      3 N           3.1979    1.1149    0.4842 N.am    1  UNL1       -0.3295
      4 O           3.0983   -1.0155   -0.5627 O.2     1  UNL1       -0.2763
      5 H           0.5862    0.8777    0.3677 H       1  UNL1        0.0322
      6 H           0.5862   -0.8657    0.4843 H       1  UNL1        0.0322
      7 H           0.5862   -0.0951   -1.0838 H       1  UNL1        0.0322
      8 H           2.7056    1.8801    0.8603 H       1  UNL1        0.1449
      9 H           4.1824    1.1149    0.4842 H       1  UNL1        0.1449
@<TRIPOS>BOND
     1     1     2    1
     2     2     3   am
     3     2     4    2
     4     1     5    1
     5     1     6    1
     6     1     7    1
     7     3     8    1
     8     3     9    1
