@<TRIPOS>MOLECULE
*****
 9 8 0 0 0
SMALL
GASTEIGER

@<TRIPOS>ATOM
      1 C           1.0398    0.0791    0.0465 C.3     1  UNL1        0.0119
      2 C           2.5598    0.0791    0.0465 C.2     1  UNL1        0.2074
      3 N           3.2948   -1.1831    0.2124 N.am    1  UNL1       -0.3295
      4 O           3.1952    1.1703   -0.0969 O.2     1  UNL1       -0.2763
      5 H           0.6831   -0.9211    0.1779 H       1  UNL1        0.0322
      6 H           0.6831    0.4654   -0.8854 H       1  UNL1        0.0322
      7 H           0.6831    0.6930    0.8470 H       1  UNL1        0.0322
      8 H           2.8025   -2.0285    0.3234 H       1  UNL1        0.1449
      9 H           4.2793   -1.1831    0.2124 H       1  UNL1        0.1449
@<TRIPOS>BOND
     1     1     2    1
     2     2     3   am
     3     2     4    2
     4     1     5    1
     5     1     6    1
     6     1     7    1
     7     3     8    1
     8     3     9    1
