@<TRIPOS>MOLECULE
*****
 35 36 0 0 0
SMALL
GASTEIGER

@<TRIPOS>ATOM
      1 O           0.9718    0.0383    0.0880 O.2     1  UNL1       -0.2793
      2 C           2.2427    0.0383    0.0880 C.2     1  UNL1        0.2025
      3 N           2.9777    1.2091    0.5879 N.am    1  UNL1       -0.3040
      4 C           4.4477    1.2091    0.5879 C.3     1  UNL1        0.0151
      5 C           4.9544    2.5270    1.1507 C.3     1  UNL1       -0.0260
      6 C           6.4744    2.5270    1.1507 C.3     1  UNL1        0.0386
      7 C           6.9811    2.3554   -0.2720 C.2     1  UNL1        0.2188
      8 O           7.7117    3.2520   -0.7988 O.2     1  UNL1       -0.2753
      9 N           6.6260    1.1525   -1.0387 N.am    1  UNL1       -0.2988
     10 C           7.1160    0.9865   -2.4146 C.3     1  UNL1        0.0272
     11 C           6.6093   -0.3314   -2.9774 C.3     1  UNL1        0.0118
     12 N           7.0993   -0.4973   -4.3534 N.3     1  UNL1       -0.3130
     13 C           6.6093   -1.7719   -4.8976 C.3     1  UNL1        0.0118
     14 C           5.7808    0.1155   -0.4293 C.3     1  UNL1        0.0272
     15 C           6.9811    3.8449    1.7135 C.3     1  UNL1       -0.0260
     16 C           2.2427    2.3798    1.0879 C.3     1  UNL1        0.0151
     17 H           2.7587   -0.7837   -0.2630 H       1  UNL1        0.1253
     18 H           4.8044    1.0883   -0.4136 H       1  UNL1        0.0465
     19 H           4.8044    0.4021    1.1933 H       1  UNL1        0.0465
     20 H           4.5977    2.6478    2.1523 H       1  UNL1        0.0288
     21 H           4.5977    3.3340    0.5454 H       1  UNL1        0.0288
     22 H           6.8311    1.7200    1.7561 H       1  UNL1        0.0395
     23 H           8.1860    0.9866   -2.4146 H       1  UNL1        0.0477
     24 H           6.7593    1.7935   -3.0200 H       1  UNL1        0.0477
     25 H           5.5393   -0.3314   -2.9774 H       1  UNL1        0.0439
     26 H           6.9660   -1.1384   -2.3720 H       1  UNL1        0.0439
     27 H           8.1193   -0.4973   -4.3534 H       1  UNL1        0.1220
     28 H           7.2659   -2.6056   -5.0347 H       1  UNL1        0.0439
     29 H           6.0413   -2.1158   -5.7367 H       1  UNL1        0.0439
     30 H           6.1981   -0.4162    0.4002 H       1  UNL1        0.0477
     31 H           4.8265    0.2629    0.0316 H       1  UNL1        0.0477
     32 H           7.4213    4.5866    1.0803 H       1  UNL1        0.0288
     33 H           7.6148    4.1852    2.5057 H       1  UNL1        0.0288
     34 H           1.6649    2.9238    0.3702 H       1  UNL1        0.0465
     35 H           1.4769    2.3756    1.8351 H       1  UNL1        0.0465
@<TRIPOS>BOND
     1     1     2    2
     2     2     3   am
     3     3     4    1
     4     4     5    1
     5     5     6    1
     6     6     7    1
     7     7     8    2
     8     7     9   am
     9     9    10    1
    10    10    11    1
    11    11    12    1
    12    12    13    1
    13    13    14    1
    14     9    14    1
    15     6    15    1
    16    15    16    1
    17     3    16    1
    18     2    17    1
    19     4    18    1
    20     4    19    1
    21     5    20    1
    22     5    21    1
    23     6    22    1
    24    10    23    1
    25    10    24    1
    26    11    25    1
    27    11    26    1
    28    12    27    1
    29    13    28    1
    30    13    29    1
    31    14    30    1
    32    14    31    1
    33    15    32    1
    34    15    33    1
    35    16    34    1
    36    16    35    1
