@<TRIPOS>MOLECULE
*****
 49 49 0 0 0
SMALL
GASTEIGER

@<TRIPOS>ATOM
      1 C           0.9131    0.0491    0.0068 C.3     1  UNL1       -0.0653
      2 C           2.4331    0.0491    0.0068 C.3     1  UNL1       -0.0559
      3 C           2.9398    1.2868    0.7290 C.3     1  UNL1       -0.0533
      4 C           4.4598    1.2868    0.7290 C.3     1  UNL1       -0.0531
      5 C           4.9664    2.5246    1.4512 C.3     1  UNL1       -0.0531
      6 C           6.4864    2.5246    1.4512 C.3     1  UNL1       -0.0531
      7 C           6.9931    3.7624    2.1734 C.3     1  UNL1       -0.0531
      8 C           8.5131    3.7624    2.1734 C.3     1  UNL1       -0.0530
      9 C           9.0198    5.0002    2.8956 C.3     1  UNL1       -0.0526
     10 C          10.5398    5.0002    2.8956 C.3     1  UNL1       -0.0448
     11 C          11.0464    6.2380    3.6178 C.3     1  UNL1        0.0243
     12 C          12.5664    6.2380    3.6178 C.2     1  UNL1        0.2172
     13 O          13.2019    5.2873    3.0631 O.2     1  UNL1       -0.2755
     14 N          13.3014    7.3376    4.2593 N.am    1  UNL1       -0.2855
     15 C          14.7714    7.3376    4.2593 C.ar    1  UNL1        0.0334
     16 C          15.4915    8.4149    4.8879 C.ar    1  UNL1       -0.0405
     17 C          16.9317    8.4149    4.8879 C.ar    1  UNL1       -0.0600
     18 C          17.6518    9.4921    5.5165 C.ar    1  UNL1       -0.0616
     19 C          19.0920    9.4921    5.5165 C.ar    1  UNL1       -0.0600
     20 C          15.4915    6.2603    3.6308 C.ar    1  UNL1       -0.0405
     21 H           0.5565   -0.8223   -0.5016 H       1  UNL1        0.0230
     22 H           0.5565    0.9250   -0.4936 H       1  UNL1        0.0230
     23 H           0.5565    0.0444    1.0156 H       1  UNL1        0.0230
     24 H           2.7898    0.0537   -1.0020 H       1  UNL1        0.0263
     25 H           2.7898   -0.8269    0.5072 H       1  UNL1        0.0263
     26 H           2.5831    1.2822    1.7378 H       1  UNL1        0.0265
     27 H           2.5831    2.1628    0.2286 H       1  UNL1        0.0265
     28 H           4.8165    1.2915   -0.2798 H       1  UNL1        0.0265
     29 H           4.8165    0.4109    1.2294 H       1  UNL1        0.0265
     30 H           4.6098    2.5200    2.4600 H       1  UNL1        0.0265
     31 H           4.6098    3.4006    0.9508 H       1  UNL1        0.0265
     32 H           6.8431    2.5292    0.4424 H       1  UNL1        0.0265
     33 H           6.8431    1.6487    1.9516 H       1  UNL1        0.0265
     34 H           6.6364    3.7578    3.1822 H       1  UNL1        0.0265
     35 H           6.6364    4.6384    1.6730 H       1  UNL1        0.0265
     36 H           8.8698    3.7670    1.1646 H       1  UNL1        0.0265
     37 H           8.8698    2.8865    2.6738 H       1  UNL1        0.0265
     38 H           8.6631    4.9956    3.9044 H       1  UNL1        0.0265
     39 H           8.6631    5.8762    2.3952 H       1  UNL1        0.0265
     40 H          10.8964    5.0048    1.8868 H       1  UNL1        0.0270
     41 H          10.8964    4.1243    3.3960 H       1  UNL1        0.0270
     42 H          10.6898    6.2334    4.6266 H       1  UNL1        0.0358
     43 H          10.6898    7.1139    3.1174 H       1  UNL1        0.0358
     44 H          12.8092    8.0740    4.6890 H       1  UNL1        0.1548
     45 H          14.9755    9.1868    5.3383 H       1  UNL1        0.0636
     46 H          17.4477    7.6429    4.4375 H       1  UNL1        0.0618
     47 H          17.1358   10.2641    5.9669 H       1  UNL1        0.0618
     48 H          20.0416    9.8412    5.7201 H       1  UNL1        0.0618
     49 H          15.3667    5.3755    3.1145 H       1  UNL1        0.0636
@<TRIPOS>BOND
     1     1     2    1
     2     2     3    1
     3     3     4    1
     4     4     5    1
     5     5     6    1
     6     6     7    1
     7     7     8    1
     8     8     9    1
     9     9    10    1
    10    10    11    1
    11    11    12    1
    12    12    13    2
    13    12    14   am
    14    14    15    1
    15    15    16   ar
    16    16    17   ar
    17    17    18   ar
    18    18    19   ar
    19    19    20   ar
    20    15    20   ar
    21     1    21    1
    22     1    22    1
    23     1    23    1
    24     2    24    1
    25     2    25    1
    26     3    26    1
    27     3    27    1
    28     4    28    1
    29     4    29    1
    30     5    30    1
    31     5    31    1
    32     6    32    1
    33     6    33    1
    34     7    34    1
    35     7    35    1
    36     8    36    1
    37     8    37    1
    38     9    38    1
    39     9    39    1
    40    10    40    1
    41    10    41    1
    42    11    42    1
    43    11    43    1
    44    14    44    1
    45    16    45    1
    46    17    46    1
    47    18    47    1
    48    19    48    1
    49    20    49    1
