@<TRIPOS>MOLECULE
*****
 38 37 0 0 0
SMALL
GASTEIGER

@<TRIPOS>ATOM
      1 O           0.9996   -0.0927   -0.0375 O.2     1  UNL1       -0.2733
      2 C           2.2705   -0.0927   -0.0375 C.2     1  UNL1        0.2386
      3 C           3.0305    0.7958   -1.0088 C.3     1  UNL1        0.1202
      4 O           2.1077    1.5243   -1.8051 O.3     1  UNL1       -0.3858
      5 N           3.0055   -0.9520    0.9018 N.am    1  UNL1       -0.3112
      6 C           4.4755   -0.9520    0.9018 C.3     1  UNL1        0.0351
      7 C           4.9822   -1.9193    1.9591 C.3     1  UNL1        0.0633
      8 O           6.4022   -1.9193    1.9591 O.3     1  UNL1       -0.3760
      9 C           6.8755   -2.8229    2.9469 C.3     1  UNL1        0.0711
     10 C           8.3955   -2.8229    2.9469 C.3     1  UNL1        0.0711
     11 O           8.8688   -3.7266    3.9347 O.3     1  UNL1       -0.3752
     12 C          10.2888   -3.7266    3.9347 C.3     1  UNL1        0.0711
     13 C          10.7955   -4.6939    4.9921 C.3     1  UNL1        0.0711
     14 O          12.2155   -4.6939    4.9921 O.3     1  UNL1       -0.3752
     15 C          12.6888   -5.5976    5.9799 C.3     1  UNL1        0.0708
     16 C          14.2088   -5.5976    5.9799 C.3     1  UNL1        0.0676
     17 O          14.6821   -6.5012    6.9677 O.3     1  UNL1       -0.3927
     18 H           3.6457    0.1895   -1.6403 H       1  UNL1        0.0654
     19 H           3.6457    1.4787   -0.4609 H       1  UNL1        0.0654
     20 H           1.5501    0.9053   -2.3018 H       1  UNL1        0.2100
     21 H           2.5133   -1.5275    1.5309 H       1  UNL1        0.1488
     22 H           4.8322    0.0331    1.1193 H       1  UNL1        0.0484
     23 H           4.8322   -1.2561   -0.0601 H       1  UNL1        0.0484
     24 H           4.6255   -2.9044    1.7416 H       1  UNL1        0.0575
     25 H           4.6255   -1.6151    2.9210 H       1  UNL1        0.0575
     26 H           6.5188   -3.8080    2.7294 H       1  UNL1        0.0583
     27 H           6.5188   -2.5188    3.9088 H       1  UNL1        0.0583
     28 H           8.7522   -1.8379    3.1645 H       1  UNL1        0.0583
     29 H           8.7522   -3.1271    1.9851 H       1  UNL1        0.0583
     30 H          10.6455   -2.7415    4.1523 H       1  UNL1        0.0583
     31 H          10.6455   -4.0307    2.9729 H       1  UNL1        0.0583
     32 H          10.4388   -5.6790    4.7746 H       1  UNL1        0.0583
     33 H          10.4388   -4.3898    5.9540 H       1  UNL1        0.0583
     34 H          12.3321   -6.5826    5.7624 H       1  UNL1        0.0583
     35 H          12.3321   -5.2934    6.9418 H       1  UNL1        0.0583
     36 H          14.5655   -4.6125    6.1975 H       1  UNL1        0.0580
     37 H          14.5655   -5.9017    5.0181 H       1  UNL1        0.0580
     38 H          14.3588   -6.2255    7.8397 H       1  UNL1        0.2095
@<TRIPOS>BOND
     1     1     2    2
     2     2     3    1
     3     3     4    1
     4     2     5   am
     5     5     6    1
     6     6     7    1
     7     7     8    1
     8     8     9    1
     9     9    10    1
    10    10    11    1
    11    11    12    1
    12    12    13    1
    13    13    14    1
    14    14    15    1
    15    15    16    1
    16    16    17    1
    17     3    18    1
    18     3    19    1
    19     4    20    1
    20     5    21    1
    21     6    22    1
    22     6    23    1
    23     7    24    1
    24     7    25    1
    25     9    26    1
    26     9    27    1
    27    10    28    1
    28    10    29    1
    29    12    30    1
    30    12    31    1
    31    13    32    1
    32    13    33    1
    33    15    34    1
    34    15    35    1
    35    16    36    1
    36    16    37    1
    37    17    38    1
