@<TRIPOS>MOLECULE
*****
 20 19 0 0 0
SMALL
GASTEIGER

@<TRIPOS>ATOM
      1 C           1.0255    0.0673    0.0694 C.3     1  UNL1        0.0365
      2 O           2.4455    0.0673    0.0694 O.3     1  UNL1       -0.3807
      3 C           2.9189    1.3470   -0.3238 C.3     1  UNL1        0.0706
      4 C           4.4389    1.3470   -0.3238 C.3     1  UNL1        0.0711
      5 O           4.9122    2.6268   -0.7171 O.3     1  UNL1       -0.3752
      6 C           6.3322    2.6268   -0.7171 C.3     1  UNL1        0.0708
      7 C           6.8389    3.9966   -1.1380 C.3     1  UNL1        0.0676
      8 O           8.2589    3.9966   -1.1380 O.3     1  UNL1       -0.3927
      9 H           0.6689   -0.8970    0.3657 H       1  UNL1        0.0524
     10 H           0.6689    0.2928   -0.9139 H       1  UNL1        0.0524
     11 H           0.6689    0.8061    0.7564 H       1  UNL1        0.0524
     12 H           2.5622    2.0858    0.3631 H       1  UNL1        0.0582
     13 H           2.5622    1.5726   -1.3071 H       1  UNL1        0.0582
     14 H           4.7955    0.6083   -1.0108 H       1  UNL1        0.0583
     15 H           4.7955    1.1215    0.6594 H       1  UNL1        0.0583
     16 H           6.6889    1.8880   -1.4040 H       1  UNL1        0.0583
     17 H           6.6889    2.4012    0.2662 H       1  UNL1        0.0583
     18 H           6.4822    4.7354   -0.4510 H       1  UNL1        0.0580
     19 H           6.4822    4.2222   -2.1213 H       1  UNL1        0.0580
     20 H           8.5822    3.7922   -0.2466 H       1  UNL1        0.2095
@<TRIPOS>BOND
     1     1     2    1
     2     2     3    1
     3     3     4    1
     4     4     5    1
     5     5     6    1
     6     6     7    1
     7     7     8    1
     8     1     9    1
     9     1    10    1
    10     1    11    1
    11     3    12    1
    12     3    13    1
    13     4    14    1
    14     4    15    1
    15     6    16    1
    16     6    17    1
    17     7    18    1
    18     7    19    1
    19     8    20    1
