@<TRIPOS>MOLECULE
*****
 19 18 0 0 0
SMALL
GASTEIGER

@<TRIPOS>ATOM
      1 C           1.0166    0.0498    0.0851 C.3     1  UNL1       -0.0416
      2 C           2.5366    0.0498    0.0851 C.3     1  UNL1        0.0449
      3 O           3.0099   -0.9562   -0.7982 O.3     1  UNL1       -0.3778
      4 C           4.4299   -0.9562   -0.7982 C.3     1  UNL1        0.0710
      5 C           4.9366   -2.0331   -1.7437 C.3     1  UNL1        0.0706
      6 O           6.3566   -2.0331   -1.7437 O.3     1  UNL1       -0.3807
      7 C           6.8299   -3.0391   -2.6271 C.3     1  UNL1        0.0365
      8 H           0.6599    0.8079    0.7507 H       1  UNL1        0.0252
      9 H           0.6599   -0.9057    0.4088 H       1  UNL1        0.0252
     10 H           0.6599    0.2472   -0.9042 H       1  UNL1        0.0252
     11 H           2.8933   -0.1476    1.0744 H       1  UNL1        0.0557
     12 H           2.8933    1.0053   -0.2386 H       1  UNL1        0.0557
     13 H           4.7866   -1.1536    0.1911 H       1  UNL1        0.0583
     14 H           4.7866   -0.0008   -1.1219 H       1  UNL1        0.0583
     15 H           4.5799   -1.8357   -2.7330 H       1  UNL1        0.0582
     16 H           4.5799   -2.9886   -1.4200 H       1  UNL1        0.0582
     17 H           7.8999   -3.0391   -2.6271 H       1  UNL1        0.0524
     18 H           6.4732   -2.8417   -3.6164 H       1  UNL1        0.0524
     19 H           6.4732   -3.9946   -2.3034 H       1  UNL1        0.0524
@<TRIPOS>BOND
     1     1     2    1
     2     2     3    1
     3     3     4    1
     4     4     5    1
     5     5     6    1
     6     6     7    1
     7     1     8    1
     8     1     9    1
     9     1    10    1
    10     2    11    1
    11     2    12    1
    12     4    13    1
    13     4    14    1
    14     5    15    1
    15     5    16    1
    16     7    17    1
    17     7    18    1
    18     7    19    1
