@<TRIPOS>MOLECULE
*****
 25 24 0 0 0
SMALL
GASTEIGER

@<TRIPOS>ATOM
      1 N           0.9570   -0.0861   -0.0271 N.3     1  UNL1       -0.3279
      2 C           2.4270   -0.0861   -0.0271 C.3     1  UNL1        0.0166
      3 C           2.9337   -1.0492   -1.0883 C.3     1  UNL1        0.0600
      4 O           4.3537   -1.0492   -1.0883 O.3     1  UNL1       -0.3763
      5 C           4.8270   -1.9490   -2.0797 C.3     1  UNL1        0.0711
      6 C           6.3470   -1.9490   -2.0797 C.3     1  UNL1        0.0711
      7 O           6.8203   -2.8487   -3.0711 O.3     1  UNL1       -0.3752
      8 C           8.2403   -2.8487   -3.0711 C.3     1  UNL1        0.0708
      9 C           8.7470   -3.8118   -4.1322 C.3     1  UNL1        0.0676
     10 O          10.1670   -3.8118   -4.1322 O.3     1  UNL1       -0.3927
     11 H           0.6170    0.5602    0.6850 H       1  UNL1        0.1183
     12 H           0.6170   -1.0260    0.1765 H       1  UNL1        0.1183
     13 H           2.7837   -0.3941    0.9335 H       1  UNL1        0.0444
     14 H           2.7837    0.8998   -0.2408 H       1  UNL1        0.0444
     15 H           2.5770   -0.7413   -2.0490 H       1  UNL1        0.0572
     16 H           2.5770   -2.0351   -0.8747 H       1  UNL1        0.0572
     17 H           4.4703   -1.6410   -3.0403 H       1  UNL1        0.0583
     18 H           4.4703   -2.9349   -1.8661 H       1  UNL1        0.0583
     19 H           6.7037   -2.2569   -1.1190 H       1  UNL1        0.0583
     20 H           6.7037   -0.9630   -2.2933 H       1  UNL1        0.0583
     21 H           8.5970   -3.1567   -2.1104 H       1  UNL1        0.0583
     22 H           8.5970   -1.8628   -3.2847 H       1  UNL1        0.0583
     23 H           8.3903   -3.5039   -5.0929 H       1  UNL1        0.0580
     24 H           8.3903   -4.7977   -3.9186 H       1  UNL1        0.0580
     25 H          10.4903   -2.9180   -4.3259 H       1  UNL1        0.2095
@<TRIPOS>BOND
     1     1     2    1
     2     2     3    1
     3     3     4    1
     4     4     5    1
     5     5     6    1
     6     6     7    1
     7     7     8    1
     8     8     9    1
     9     9    10    1
    10     1    11    1
    11     1    12    1
    12     2    13    1
    13     2    14    1
    14     3    15    1
    15     3    16    1
    16     5    17    1
    17     5    18    1
    18     6    19    1
    19     6    20    1
    20     8    21    1
    21     8    22    1
    22     9    23    1
    23     9    24    1
    24    10    25    1
