@<TRIPOS>MOLECULE
*****
 35 34 0 0 0
SMALL
GASTEIGER

@<TRIPOS>ATOM
      1 C           1.0741   -0.0358    0.0568 C.3     1  UNL1       -0.0653
      2 C           2.5941   -0.0358    0.0568 C.3     1  UNL1       -0.0559
      3 C           3.1008   -0.9592    1.1527 C.3     1  UNL1       -0.0533
      4 C           4.6208   -0.9592    1.1527 C.3     1  UNL1       -0.0531
      5 C           5.1274   -1.8826    2.2486 C.3     1  UNL1       -0.0530
      6 C           6.6474   -1.8826    2.2486 C.3     1  UNL1       -0.0516
      7 C           7.1541   -2.8061    3.3445 C.3     1  UNL1       -0.0374
      8 C           8.6741   -2.8061    3.3445 C.3     1  UNL1        0.0116
      9 N           9.1641   -3.6991    4.4043 N.am    1  UNL1       -0.3150
     10 C          10.6093   -3.8722    4.6097 C.2     1  UNL1        0.2199
     11 O          11.4352   -3.2498    3.8710 O.2     1  UNL1       -0.2754
     12 C          11.1160   -4.7957    5.7056 C.3     1  UNL1        0.0793
     13 C          12.6360   -4.7957    5.7056 C.2     1  UNL1        0.1290
     14 O          13.2714   -5.5049    6.5473 O.2     1  UNL1       -0.3005
     15 H           0.7174    0.6143   -0.7146 H       1  UNL1        0.0230
     16 H           0.7174    0.3073    1.0055 H       1  UNL1        0.0230
     17 H           0.7174   -1.0289   -0.1204 H       1  UNL1        0.0230
     18 H           2.9508    0.9573    0.2341 H       1  UNL1        0.0263
     19 H           2.9508   -0.3788   -0.8918 H       1  UNL1        0.0263
     20 H           2.7441   -1.9523    0.9755 H       1  UNL1        0.0265
     21 H           2.7441   -0.6161    2.1014 H       1  UNL1        0.0265
     22 H           4.9774    0.0339    1.3300 H       1  UNL1        0.0265
     23 H           4.9774   -1.3023    0.2040 H       1  UNL1        0.0265
     24 H           4.7707   -2.8758    2.0714 H       1  UNL1        0.0265
     25 H           4.7707   -1.5396    3.1973 H       1  UNL1        0.0265
     26 H           7.0041   -0.8895    2.4258 H       1  UNL1        0.0266
     27 H           7.0041   -2.2257    1.2999 H       1  UNL1        0.0266
     28 H           6.7974   -3.7992    3.1673 H       1  UNL1        0.0280
     29 H           6.7974   -2.4630    4.2932 H       1  UNL1        0.0280
     30 H           9.0307   -1.8130    3.5217 H       1  UNL1        0.0462
     31 H           9.0307   -3.1491    2.3958 H       1  UNL1        0.0462
     32 H           8.5243   -4.1813    4.9766 H       1  UNL1        0.1487
     33 H          10.7593   -5.7888    5.5284 H       1  UNL1        0.0433
     34 H          10.7593   -4.4526    6.6543 H       1  UNL1        0.0433
     35 H          13.1520   -4.2198    5.0222 H       1  UNL1        0.1031
@<TRIPOS>BOND
     1     1     2    1
     2     2     3    1
     3     3     4    1
     4     4     5    1
     5     5     6    1
     6     6     7    1
     7     7     8    1
     8     8     9    1
     9     9    10   am
    10    10    11    2
    11    10    12    1
    12    12    13    1
    13    13    14    2
    14     1    15    1
    15     1    16    1
    16     1    17    1
    17     2    18    1
    18     2    19    1
    19     3    20    1
    20     3    21    1
    21     4    22    1
    22     4    23    1
    23     5    24    1
    24     5    25    1
    25     6    26    1
    26     6    27    1
    27     7    28    1
    28     7    29    1
    29     8    30    1
    30     8    31    1
    31     9    32    1
    32    12    33    1
    33    12    34    1
    34    13    35    1
