@<TRIPOS>MOLECULE
*****
 45 44 0 0 0
SMALL
GASTEIGER

@<TRIPOS>ATOM
      1 C           0.9503    0.0852   -0.0166 C.3     1  UNL1        0.0121
      2 C           2.4703    0.0852   -0.0166 C.2     1  UNL1        0.2100
      3 O           3.1057   -1.0071    0.1189 O.2     1  UNL1       -0.2761
      4 N           3.2053    1.3485   -0.1733 N.am    1  UNL1       -0.3133
      5 C           4.6753    1.3485   -0.1733 C.3     1  UNL1        0.0350
      6 C           5.1819    2.7707   -0.3496 C.3     1  UNL1        0.0632
      7 O           6.6019    2.7707   -0.3496 O.3     1  UNL1       -0.3760
      8 C           7.0753    4.0993   -0.5144 C.3     1  UNL1        0.0711
      9 C           8.5953    4.0993   -0.5144 C.3     1  UNL1        0.0711
     10 O           9.0686    5.4279   -0.6792 O.3     1  UNL1       -0.3752
     11 C          10.4886    5.4279   -0.6792 C.3     1  UNL1        0.0711
     12 C          10.9953    6.8501   -0.8555 C.3     1  UNL1        0.0711
     13 O          12.4153    6.8501   -0.8555 O.3     1  UNL1       -0.3752
     14 C          12.8886    8.1787   -1.0203 C.3     1  UNL1        0.0711
     15 C          14.4086    8.1787   -1.0203 C.3     1  UNL1        0.0711
     16 O          14.8819    9.5073   -1.1850 O.3     1  UNL1       -0.3763
     17 C          16.3019    9.5073   -1.1850 C.3     1  UNL1        0.0600
     18 C          16.8086   10.9295   -1.3614 C.3     1  UNL1        0.0166
     19 N          18.2786   10.9295   -1.3614 N.3     1  UNL1       -0.3279
     20 H           0.5936   -0.9160    0.1076 H       1  UNL1        0.0322
     21 H           0.5936    0.4782   -0.9457 H       1  UNL1        0.0322
     22 H           0.5936    0.6932    0.7883 H       1  UNL1        0.0322
     23 H           2.7130    2.1947   -0.2782 H       1  UNL1        0.1488
     24 H           5.0319    0.7405   -0.9782 H       1  UNL1        0.0484
     25 H           5.0319    0.9555    0.7558 H       1  UNL1        0.0484
     26 H           4.8253    3.3788    0.4553 H       1  UNL1        0.0575
     27 H           4.8253    3.1638   -1.2787 H       1  UNL1        0.0575
     28 H           6.7186    4.7074    0.2905 H       1  UNL1        0.0583
     29 H           6.7186    4.4924   -1.4435 H       1  UNL1        0.0583
     30 H           8.9519    3.4912   -1.3193 H       1  UNL1        0.0583
     31 H           8.9519    3.7063    0.4147 H       1  UNL1        0.0583
     32 H          10.8453    4.8199   -1.4841 H       1  UNL1        0.0583
     33 H          10.8453    5.0349    0.2499 H       1  UNL1        0.0583
     34 H          10.6386    7.4582   -0.0506 H       1  UNL1        0.0583
     35 H          10.6386    7.2432   -1.7846 H       1  UNL1        0.0583
     36 H          12.5319    8.7868   -0.2153 H       1  UNL1        0.0583
     37 H          12.5319    8.5718   -1.9494 H       1  UNL1        0.0583
     38 H          14.7652    7.5706   -1.8252 H       1  UNL1        0.0583
     39 H          14.7652    7.7857   -0.0912 H       1  UNL1        0.0583
     40 H          16.6586    8.8993   -1.9900 H       1  UNL1        0.0572
     41 H          16.6586    9.1143   -0.2560 H       1  UNL1        0.0572
     42 H          16.4519   11.5376   -0.5565 H       1  UNL1        0.0444
     43 H          16.4519   11.3226   -2.2905 H       1  UNL1        0.0444
     44 H          18.6186   10.5548   -0.4757 H       1  UNL1        0.1183
     45 H          18.6186   11.8839   -1.4798 H       1  UNL1        0.1183
@<TRIPOS>BOND
     1     1     2    1
     2     2     3    2
     3     2     4   am
     4     4     5    1
     5     5     6    1
     6     6     7    1
     7     7     8    1
     8     8     9    1
     9     9    10    1
    10    10    11    1
    11    11    12    1
    12    12    13    1
    13    13    14    1
    14    14    15    1
    15    15    16    1
    16    16    17    1
    17    17    18    1
    18    18    19    1
    19     1    20    1
    20     1    21    1
    21     1    22    1
    22     4    23    1
    23     5    24    1
    24     5    25    1
    25     6    26    1
    26     6    27    1
    27     8    28    1
    28     8    29    1
    29     9    30    1
    30     9    31    1
    31    11    32    1
    32    11    33    1
    33    12    34    1
    34    12    35    1
    35    14    36    1
    36    14    37    1
    37    15    38    1
    38    15    39    1
    39    17    40    1
    40    17    41    1
    41    18    42    1
    42    18    43    1
    43    19    44    1
    44    19    45    1
