@<TRIPOS>MOLECULE
*****
 31 32 0 0 0
SMALL
GASTEIGER

@<TRIPOS>ATOM
      1 C           0.9995   -0.0945    0.0328 C.3     1  UNL1       -0.0027
      2 C           2.5195   -0.0945    0.0328 C.3     1  UNL1       -0.0247
      3 C           3.0262    0.9842   -0.9107 C.3     1  UNL1        0.0128
      4 N           2.5362    2.2960   -0.4635 N.3     1  UNL1       -0.2969
      5 C           1.0662    2.2960   -0.4635 C.3     1  UNL1        0.0118
      6 C           0.5595    3.6524   -0.0011 C.3     1  UNL1        0.0087
      7 N          -0.9105    3.6524   -0.0011 N.3     1  UNL1       -0.3136
      8 C          -1.4005    4.9642    0.4461 C.3     1  UNL1        0.0087
      9 C           3.0262    3.3392   -1.3759 C.3     1  UNL1        0.0118
     10 C           4.5462    0.9842   -0.9107 C.3     1  UNL1       -0.0247
     11 C           5.0528    2.0629   -1.8542 C.3     1  UNL1       -0.0027
     12 N           0.5095   -1.1377    0.9453 N.3     1  UNL1       -0.3159
     13 H           0.6428   -0.2900   -0.9569 H       1  UNL1        0.0424
     14 H           0.6428    0.8604    0.3583 H       1  UNL1        0.0424
     15 H           2.8762   -1.0493   -0.2927 H       1  UNL1        0.0293
     16 H           2.8762    0.1011    1.0225 H       1  UNL1        0.0293
     17 H           2.6695    0.7887   -1.9004 H       1  UNL1        0.0463
     18 H           0.7095    1.5367    0.2007 H       1  UNL1        0.0439
     19 H           0.7095    2.1005   -1.4532 H       1  UNL1        0.0439
     20 H           0.9162    4.4117   -0.6652 H       1  UNL1        0.0437
     21 H           0.9162    3.8479    0.9886 H       1  UNL1        0.0437
     22 H          -1.2505    2.9286    0.6320 H       1  UNL1        0.1220
     23 H          -1.5373    5.1961    1.4817 H       1  UNL1        0.0437
     24 H          -2.1709    5.6747    0.2301 H       1  UNL1        0.0437
     25 H           3.9069    3.8748   -1.0891 H       1  UNL1        0.0439
     26 H           3.3408    3.2475   -2.3945 H       1  UNL1        0.0439
     27 H           4.9028    0.0294   -1.2362 H       1  UNL1        0.0293
     28 H           4.9028    1.1797    0.0790 H       1  UNL1        0.0293
     29 H           5.3909    1.8768   -2.8522 H       1  UNL1        0.0424
     30 H           5.5555    3.0029   -1.9469 H       1  UNL1        0.0424
     31 H           0.1872   -0.9603    1.8966 H       1  UNL1        0.1219
@<TRIPOS>BOND
     1     1     2    1
     2     2     3    1
     3     3     4    1
     4     4     5    1
     5     5     6    1
     6     6     7    1
     7     7     8    1
     8     8     9    1
     9     4     9    1
    10     3    10    1
    11    10    11    1
    12    11    12    1
    13     1    12    1
    14     1    13    1
    15     1    14    1
    16     2    15    1
    17     2    16    1
    18     3    17    1
    19     5    18    1
    20     5    19    1
    21     6    20    1
    22     6    21    1
    23     7    22    1
    24     8    23    1
    25     8    24    1
    26     9    25    1
    27     9    26    1
    28    10    27    1
    29    10    28    1
    30    11    29    1
    31    11    30    1
    32    12    31    1
