@<TRIPOS>MOLECULE
*****
 5 4 0 0 0
SMALL
GASTEIGER

@<TRIPOS>ATOM
      1 C           1.0227   -0.0654   -0.0722 C.3     1  UNL1       -0.0776
      2 H           2.0927   -0.0654   -0.0722 H       1  UNL1        0.0194
      3 H           0.6660    0.6059   -0.8252 H       1  UNL1        0.0194
      4 H           0.6660    0.2511    0.8857 H       1  UNL1        0.0194
      5 H           0.6660   -1.0532   -0.2770 H       1  UNL1        0.0194
@<TRIPOS>BOND
     1     1     2    1
     2     1     3    1
     3     1     4    1
     4     1     5    1
