@<TRIPOS>MOLECULE
*****
 32 31 0 0 0
SMALL
GASTEIGER

@<TRIPOS>ATOM
      1 N           0.9877   -0.0569    0.0813 N.3     1  UNL1       -0.3279
      2 C           2.4577   -0.0569    0.0813 C.3     1  UNL1        0.0166
      3 C           2.9644    0.7314   -1.1155 C.3     1  UNL1        0.0600
      4 O           4.3844    0.7314   -1.1155 O.3     1  UNL1       -0.3763
      5 C           4.8577    1.4678   -2.2335 C.3     1  UNL1        0.0711
      6 C           6.3777    1.4678   -2.2335 C.3     1  UNL1        0.0711
      7 O           6.8510    2.2042   -3.3516 O.3     1  UNL1       -0.3752
      8 C           8.2710    2.2042   -3.3516 C.3     1  UNL1        0.0711
      9 C           8.7777    2.9926   -4.5483 C.3     1  UNL1        0.0711
     10 O          10.1977    2.9926   -4.5483 O.3     1  UNL1       -0.3752
     11 C          10.6710    3.7290   -5.6664 C.3     1  UNL1        0.0708
     12 C          12.1910    3.7290   -5.6664 C.3     1  UNL1        0.0676
     13 O          12.6643    4.4654   -6.7844 O.3     1  UNL1       -0.3927
     14 H           0.6477   -0.5859    0.8844 H       1  UNL1        0.1183
     15 H           0.6477   -0.4880   -0.7784 H       1  UNL1        0.1183
     16 H           2.8144   -1.0640    0.0219 H       1  UNL1        0.0444
     17 H           2.8144    0.3952    0.9831 H       1  UNL1        0.0444
     18 H           2.6077    1.7384   -1.0561 H       1  UNL1        0.0572
     19 H           2.6077    0.2792   -2.0173 H       1  UNL1        0.0572
     20 H           4.5010    2.4749   -2.1742 H       1  UNL1        0.0583
     21 H           4.5010    1.0157   -3.1353 H       1  UNL1        0.0583
     22 H           6.7343    0.4607   -2.2929 H       1  UNL1        0.0583
     23 H           6.7343    1.9199   -1.3317 H       1  UNL1        0.0583
     24 H           8.6277    1.1972   -3.4109 H       1  UNL1        0.0583
     25 H           8.6277    2.6564   -2.4498 H       1  UNL1        0.0583
     26 H           8.4210    3.9996   -4.4890 H       1  UNL1        0.0583
     27 H           8.4210    2.5404   -5.4502 H       1  UNL1        0.0583
     28 H          10.3143    4.7361   -5.6070 H       1  UNL1        0.0583
     29 H          10.3143    3.2769   -6.5682 H       1  UNL1        0.0583
     30 H          12.5477    2.7219   -5.7257 H       1  UNL1        0.0580
     31 H          12.5477    4.1811   -4.7646 H       1  UNL1        0.0580
     32 H          12.3410    4.0556   -7.6020 H       1  UNL1        0.2095
@<TRIPOS>BOND
     1     1     2    1
     2     2     3    1
     3     3     4    1
     4     4     5    1
     5     5     6    1
     6     6     7    1
     7     7     8    1
     8     8     9    1
     9     9    10    1
    10    10    11    1
    11    11    12    1
    12    12    13    1
    13     1    14    1
    14     1    15    1
    15     2    16    1
    16     2    17    1
    17     3    18    1
    18     3    19    1
    19     5    20    1
    20     5    21    1
    21     6    22    1
    22     6    23    1
    23     8    24    1
    24     8    25    1
    25     9    26    1
    26     9    27    1
    27    11    28    1
    28    11    29    1
    29    12    30    1
    30    12    31    1
    31    13    32    1
