@<TRIPOS>MOLECULE
*****
 38 37 0 0 0
SMALL
GASTEIGER

@<TRIPOS>ATOM
      1 C           1.0783    0.0616   -0.0089 C.3     1  UNL1       -0.0653
      2 C           2.5983    0.0616   -0.0089 C.3     1  UNL1       -0.0559
      3 C           3.1049    0.0907    1.4239 C.3     1  UNL1       -0.0529
      4 C           4.6249    0.0907    1.4239 C.3     1  UNL1       -0.0448
      5 C           5.1316    0.1199    2.8566 C.3     1  UNL1        0.0241
      6 C           6.6516    0.1199    2.8566 C.2     1  UNL1        0.2154
      7 O           7.2870    0.0975    1.7562 O.2     1  UNL1       -0.2756
      8 N           7.3866    0.1457    4.1294 N.am    1  UNL1       -0.3033
      9 C           6.6516    0.1716    5.4022 C.3     1  UNL1        0.0032
     10 C           8.8566    0.1457    4.1294 C.3     1  UNL1        0.0271
     11 C           9.3633    0.1749    5.5622 C.3     1  UNL1        0.0141
     12 N          10.8333    0.1749    5.5622 N.3     1  UNL1       -0.3069
     13 C          11.3233    1.3608    4.8450 C.3     1  UNL1       -0.0130
     14 C          11.3233    0.2031    6.9478 C.3     1  UNL1       -0.0130
     15 H           0.7216    0.0411   -1.0175 H       1  UNL1        0.0230
     16 H           0.7216    0.9453    0.4776 H       1  UNL1        0.0230
     17 H           0.7216   -0.8016    0.5131 H       1  UNL1        0.0230
     18 H           2.9549    0.9248   -0.5310 H       1  UNL1        0.0263
     19 H           2.9549   -0.8221   -0.4955 H       1  UNL1        0.0263
     20 H           2.7483   -0.7725    1.9459 H       1  UNL1        0.0265
     21 H           2.7483    0.9744    1.9104 H       1  UNL1        0.0265
     22 H           4.9816    0.9539    0.9018 H       1  UNL1        0.0270
     23 H           4.9816   -0.7930    0.9373 H       1  UNL1        0.0270
     24 H           4.7749   -0.7434    3.3787 H       1  UNL1        0.0358
     25 H           4.7749    1.0036    3.3432 H       1  UNL1        0.0358
     26 H           5.5996    0.1677    5.2067 H       1  UNL1        0.0428
     27 H           6.9101    1.0565    5.9454 H       1  UNL1        0.0428
     28 H           6.9101   -0.6904    5.9810 H       1  UNL1        0.0428
     29 H           9.2133    1.0090    3.6074 H       1  UNL1        0.0477
     30 H           9.2133   -0.7380    3.6429 H       1  UNL1        0.0477
     31 H           9.0066   -0.6883    6.0843 H       1  UNL1        0.0442
     32 H           9.0066    1.0586    6.0487 H       1  UNL1        0.0442
     33 H          10.9666    1.3403    3.8364 H       1  UNL1        0.0391
     34 H          12.3933    1.3608    4.8450 H       1  UNL1        0.0391
     35 H          10.9666    2.2445    5.3315 H       1  UNL1        0.0391
     36 H          10.9666   -0.6602    7.4699 H       1  UNL1        0.0391
     37 H          10.9666    1.0868    7.4344 H       1  UNL1        0.0391
     38 H          12.3933    0.2031    6.9479 H       1  UNL1        0.0391
@<TRIPOS>BOND
     1     1     2    1
     2     2     3    1
     3     3     4    1
     4     4     5    1
     5     5     6    1
     6     6     7    2
     7     6     8   am
     8     8     9    1
     9     8    10    1
    10    10    11    1
    11    11    12    1
    12    12    13    1
    13    12    14    1
    14     1    15    1
    15     1    16    1
    16     1    17    1
    17     2    18    1
    18     2    19    1
    19     3    20    1
    20     3    21    1
    21     4    22    1
    22     4    23    1
    23     5    24    1
    24     5    25    1
    25     9    26    1
    26     9    27    1
    27     9    28    1
    28    10    29    1
    29    10    30    1
    30    11    31    1
    31    11    32    1
    32    13    33    1
    33    13    34    1
    34    13    35    1
    35    14    36    1
    36    14    37    1
    37    14    38    1
