@<TRIPOS>MOLECULE
*****
 38 37 0 0 0
SMALL
GASTEIGER

@<TRIPOS>ATOM
      1 C           1.0976    0.0151   -0.0157 C.3     1  UNL1       -0.0653
      2 C           2.6176    0.0151   -0.0157 C.3     1  UNL1       -0.0559
      3 C           3.1243   -1.4024   -0.2269 C.3     1  UNL1       -0.0529
      4 C           4.6443   -1.4024   -0.2269 C.3     1  UNL1       -0.0448
      5 C           5.1509   -2.8198   -0.4381 C.3     1  UNL1        0.0241
      6 C           6.6709   -2.8198   -0.4381 C.2     1  UNL1        0.2154
      7 O           7.3064   -1.7312   -0.2759 O.2     1  UNL1       -0.2756
      8 N           7.4059   -4.0789   -0.6257 N.am    1  UNL1       -0.3033
      9 C           6.6709   -5.3381   -0.8133 C.3     1  UNL1        0.0032
     10 C           8.8759   -4.0789   -0.6257 C.3     1  UNL1        0.0271
     11 C           9.3826   -5.4964   -0.8369 C.3     1  UNL1        0.0141
     12 N          10.8526   -5.4964   -0.8369 N.3     1  UNL1       -0.3069
     13 C          11.3426   -4.9879    0.4524 C.3     1  UNL1       -0.0130
     14 C          11.3426   -6.8672   -1.0412 C.3     1  UNL1       -0.0130
     15 H           0.7410    1.0128    0.1330 H       1  UNL1        0.0230
     16 H           0.7409   -0.6126    0.7741 H       1  UNL1        0.0230
     17 H           0.7409   -0.3551   -0.9541 H       1  UNL1        0.0230
     18 H           2.9743    0.3852    0.9228 H       1  UNL1        0.0263
     19 H           2.9743    0.6427   -0.8054 H       1  UNL1        0.0263
     20 H           2.7676   -1.7725   -1.1653 H       1  UNL1        0.0265
     21 H           2.7676   -2.0300    0.5629 H       1  UNL1        0.0265
     22 H           5.0009   -1.0322    0.7116 H       1  UNL1        0.0270
     23 H           5.0009   -0.7747   -1.0166 H       1  UNL1        0.0270
     24 H           4.7943   -3.1899   -1.3765 H       1  UNL1        0.0358
     25 H           4.7943   -3.4475    0.3517 H       1  UNL1        0.0358
     26 H           5.6190   -5.1447   -0.7845 H       1  UNL1        0.0428
     27 H           6.9294   -6.0218   -0.0319 H       1  UNL1        0.0428
     28 H           6.9294   -5.7643   -1.7601 H       1  UNL1        0.0428
     29 H           9.2326   -3.7088    0.3127 H       1  UNL1        0.0477
     30 H           9.2326   -3.4513   -1.4155 H       1  UNL1        0.0477
     31 H           9.0259   -5.8665   -1.7754 H       1  UNL1        0.0442
     32 H           9.0259   -6.1240   -0.0472 H       1  UNL1        0.0442
     33 H          10.9859   -3.9901    0.6010 H       1  UNL1        0.0391
     34 H          12.4126   -4.9879    0.4524 H       1  UNL1        0.0391
     35 H          10.9859   -5.6155    1.2421 H       1  UNL1        0.0391
     36 H          10.9859   -7.2373   -1.9796 H       1  UNL1        0.0391
     37 H          10.9859   -7.4948   -0.2514 H       1  UNL1        0.0391
     38 H          12.4126   -6.8672   -1.0412 H       1  UNL1        0.0391
@<TRIPOS>BOND
     1     1     2    1
     2     2     3    1
     3     3     4    1
     4     4     5    1
     5     5     6    1
     6     6     7    2
     7     6     8   am
     8     8     9    1
     9     8    10    1
    10    10    11    1
    11    11    12    1
    12    12    13    1
    13    12    14    1
    14     1    15    1
    15     1    16    1
    16     1    17    1
    17     2    18    1
    18     2    19    1
    19     3    20    1
    20     3    21    1
    21     4    22    1
    22     4    23    1
    23     5    24    1
    24     5    25    1
    25     9    26    1
    26     9    27    1
    27     9    28    1
    28    10    29    1
    29    10    30    1
    30    11    31    1
    31    11    32    1
    32    13    33    1
    33    13    34    1
    34    13    35    1
    35    14    36    1
    36    14    37    1
    37    14    38    1
