@<TRIPOS>MOLECULE
*****
 27 26 0 0 0
SMALL
GASTEIGER

@<TRIPOS>ATOM
      1 O           0.9085   -0.0388   -0.0113 O.2     1  UNL1       -0.2795
      2 C           2.1794   -0.0388   -0.0113 C.2     1  UNL1        0.2000
      3 N           2.9144   -0.0754    1.2613 N.am    1  UNL1       -0.3157
      4 C           4.3844   -0.0754    1.2613 C.3     1  UNL1        0.0348
      5 C           4.8911   -0.1167    2.6937 C.3     1  UNL1        0.0632
      6 O           6.3111   -0.1167    2.6937 O.3     1  UNL1       -0.3760
      7 C           6.7844   -0.1552    4.0320 C.3     1  UNL1        0.0711
      8 C           8.3044   -0.1552    4.0320 C.3     1  UNL1        0.0711
      9 O           8.7777   -0.1937    5.3702 O.3     1  UNL1       -0.3752
     10 C          10.1977   -0.1937    5.3702 C.3     1  UNL1        0.0708
     11 C          10.7044   -0.2349    6.8027 C.3     1  UNL1        0.0676
     12 O          12.1244   -0.2349    6.8027 O.3     1  UNL1       -0.3927
     13 H           2.6954   -0.0131   -0.9046 H       1  UNL1        0.1251
     14 H           2.4222   -0.1000    2.1135 H       1  UNL1        0.1485
     15 H           4.7411    0.8124    0.7822 H       1  UNL1        0.0484
     16 H           4.7411   -0.9342    0.7319 H       1  UNL1        0.0484
     17 H           4.5344   -1.0045    3.1728 H       1  UNL1        0.0575
     18 H           4.5344    0.7421    3.2231 H       1  UNL1        0.0575
     19 H           6.4277   -1.0430    4.5110 H       1  UNL1        0.0583
     20 H           6.4277    0.7036    4.5613 H       1  UNL1        0.0583
     21 H           8.6611    0.7326    3.5529 H       1  UNL1        0.0583
     22 H           8.6611   -1.0140    3.5026 H       1  UNL1        0.0583
     23 H          10.5544    0.6941    4.8912 H       1  UNL1        0.0583
     24 H          10.5544   -1.0525    4.8409 H       1  UNL1        0.0583
     25 H          10.3477   -1.1227    7.2818 H       1  UNL1        0.0580
     26 H          10.3477    0.6238    7.3320 H       1  UNL1        0.0580
     27 H          12.4477   -1.0135    6.3228 H       1  UNL1        0.2095
@<TRIPOS>BOND
     1     1     2    2
     2     2     3   am
     3     3     4    1
     4     4     5    1
     5     5     6    1
     6     6     7    1
     7     7     8    1
     8     8     9    1
     9     9    10    1
    10    10    11    1
    11    11    12    1
    12     2    13    1
    13     3    14    1
    14     4    15    1
    15     4    16    1
    16     5    17    1
    17     5    18    1
    18     7    19    1
    19     7    20    1
    20     8    21    1
    21     8    22    1
    22    10    23    1
    23    10    24    1
    24    11    25    1
    25    11    26    1
    26    12    27    1
