@<TRIPOS>MOLECULE
*****
 27 26 0 0 0
SMALL
GASTEIGER

@<TRIPOS>ATOM
      1 C           1.0881    0.0198    0.0430 C.3     1  UNL1        0.0365
      2 O           2.5081    0.0198    0.0430 O.3     1  UNL1       -0.3807
      3 C           2.9814   -0.5266   -1.1792 C.3     1  UNL1        0.0706
      4 C           4.5014   -0.5266   -1.1792 C.3     1  UNL1        0.0711
      5 O           4.9748   -1.0731   -2.4014 O.3     1  UNL1       -0.3752
      6 C           6.3948   -1.0731   -2.4014 C.3     1  UNL1        0.0711
      7 C           6.9014   -1.6580   -3.7097 C.3     1  UNL1        0.0711
      8 O           8.3214   -1.6580   -3.7097 O.3     1  UNL1       -0.3752
      9 C           8.7948   -2.2044   -4.9319 C.3     1  UNL1        0.0708
     10 C          10.3148   -2.2044   -4.9319 C.3     1  UNL1        0.0676
     11 O          10.7881   -2.7508   -6.1541 O.3     1  UNL1       -0.3927
     12 H           0.7314    0.4315    0.9639 H       1  UNL1        0.0524
     13 H           0.7314   -0.9837   -0.0609 H       1  UNL1        0.0524
     14 H           0.7314    0.6115   -0.7741 H       1  UNL1        0.0524
     15 H           2.6248    0.0651   -1.9963 H       1  UNL1        0.0582
     16 H           2.6248   -1.5301   -1.2831 H       1  UNL1        0.0582
     17 H           4.8581   -1.1183   -0.3622 H       1  UNL1        0.0583
     18 H           4.8581    0.4768   -1.0753 H       1  UNL1        0.0583
     19 H           6.7514   -1.6648   -1.5844 H       1  UNL1        0.0583
     20 H           6.7514   -0.0696   -2.2975 H       1  UNL1        0.0583
     21 H           6.5448   -1.0663   -4.5268 H       1  UNL1        0.0583
     22 H           6.5448   -2.6614   -3.8136 H       1  UNL1        0.0583
     23 H           8.4381   -1.6127   -5.7490 H       1  UNL1        0.0583
     24 H           8.4381   -3.2078   -5.0358 H       1  UNL1        0.0583
     25 H          10.6714   -2.7961   -4.1149 H       1  UNL1        0.0580
     26 H          10.6714   -1.2009   -4.8280 H       1  UNL1        0.0580
     27 H          10.4647   -3.6605   -6.2483 H       1  UNL1        0.2095
@<TRIPOS>BOND
     1     1     2    1
     2     2     3    1
     3     3     4    1
     4     4     5    1
     5     5     6    1
     6     6     7    1
     7     7     8    1
     8     8     9    1
     9     9    10    1
    10    10    11    1
    11     1    12    1
    12     1    13    1
    13     1    14    1
    14     3    15    1
    15     3    16    1
    16     4    17    1
    17     4    18    1
    18     6    19    1
    19     6    20    1
    20     7    21    1
    21     7    22    1
    22     9    23    1
    23     9    24    1
    24    10    25    1
    25    10    26    1
    26    11    27    1
