@<TRIPOS>MOLECULE
*****
 44 44 0 0 0
SMALL
GASTEIGER

@<TRIPOS>ATOM
      1 N           1.0776    0.0059   -0.0628 N.3     1  UNL1       -0.3279
      2 C           2.5476    0.0059   -0.0628 C.3     1  UNL1        0.0166
      3 C           3.0543   -0.9641    0.9921 C.3     1  UNL1        0.0600
      4 O           4.4743   -0.9641    0.9921 O.3     1  UNL1       -0.3763
      5 C           4.9476   -1.8702    1.9776 C.3     1  UNL1        0.0711
      6 C           6.4676   -1.8702    1.9776 C.3     1  UNL1        0.0711
      7 O           6.9409   -2.7764    2.9631 O.3     1  UNL1       -0.3752
      8 C           8.3609   -2.7764    2.9631 C.3     1  UNL1        0.0711
      9 C           8.8676   -3.7464    4.0181 C.3     1  UNL1        0.0711
     10 O          10.2876   -3.7464    4.0181 O.3     1  UNL1       -0.3752
     11 C          10.7609   -4.6526    5.0036 C.3     1  UNL1        0.0711
     12 C          12.2809   -4.6526    5.0036 C.3     1  UNL1        0.0711
     13 O          12.7543   -5.5587    5.9891 O.3     1  UNL1       -0.3757
     14 C          14.1743   -5.5587    5.9891 C.3     1  UNL1        0.0673
     15 C          14.6809   -6.5287    7.0440 C.3     1  UNL1        0.0665
     16 N          16.1509   -6.5287    7.0440 N.ar    1  UNL1       -0.2495
     17 C          16.8473   -7.3452    7.9319 C.ar    1  UNL1        0.0455
     18 C          18.2875   -7.3452    7.9319 C.ar    1  UNL1        0.0693
     19 N          18.9840   -8.1616    8.8198 N.ar    1  UNL1       -0.1380
     20 N          16.8237   -5.7401    6.1862 N.ar    1  UNL1       -0.0657
     21 H           0.7376    0.6568   -0.7706 H       1  UNL1        0.1183
     22 H           0.7376    0.2935    0.8549 H       1  UNL1        0.1183
     23 H           2.9043    0.9904    0.1573 H       1  UNL1        0.0444
     24 H           2.9043   -0.2958   -1.0254 H       1  UNL1        0.0444
     25 H           2.6976   -1.9486    0.7721 H       1  UNL1        0.0572
     26 H           2.6976   -0.6624    1.9548 H       1  UNL1        0.0572
     27 H           4.5910   -2.8547    1.7576 H       1  UNL1        0.0583
     28 H           4.5910   -1.5685    2.9403 H       1  UNL1        0.0583
     29 H           6.8243   -0.8857    2.1977 H       1  UNL1        0.0583
     30 H           6.8243   -2.1719    1.0150 H       1  UNL1        0.0583
     31 H           8.7176   -1.7919    3.1832 H       1  UNL1        0.0583
     32 H           8.7176   -3.0781    2.0005 H       1  UNL1        0.0583
     33 H           8.5109   -4.7309    3.7980 H       1  UNL1        0.0583
     34 H           8.5109   -3.4447    4.9807 H       1  UNL1        0.0583
     35 H          10.4043   -5.6371    4.7835 H       1  UNL1        0.0583
     36 H          10.4043   -4.3509    5.9662 H       1  UNL1        0.0583
     37 H          12.6376   -3.6681    5.2236 H       1  UNL1        0.0583
     38 H          12.6376   -4.9543    4.0409 H       1  UNL1        0.0583
     39 H          14.5309   -4.5742    6.2091 H       1  UNL1        0.0578
     40 H          14.5309   -5.8604    5.0264 H       1  UNL1        0.0578
     41 H          14.3243   -7.5132    6.8239 H       1  UNL1        0.0532
     42 H          14.3243   -6.2270    8.0066 H       1  UNL1        0.0532
     43 H          16.3313   -7.9501    8.5898 H       1  UNL1        0.0842
     44 H          18.8035   -6.7402    7.2740 H       1  UNL1        0.0864
@<TRIPOS>BOND
     1     1     2    1
     2     2     3    1
     3     3     4    1
     4     4     5    1
     5     5     6    1
     6     6     7    1
     7     7     8    1
     8     8     9    1
     9     9    10    1
    10    10    11    1
    11    11    12    1
    12    12    13    1
    13    13    14    1
    14    14    15    1
    15    15    16    1
    16    16    17   ar
    17    17    18   ar
    18    18    19   ar
    19    19    20   ar
    20    16    20   ar
    21     1    21    1
    22     1    22    1
    23     2    23    1
    24     2    24    1
    25     3    25    1
    26     3    26    1
    27     5    27    1
    28     5    28    1
    29     6    29    1
    30     6    30    1
    31     8    31    1
    32     8    32    1
    33     9    33    1
    34     9    34    1
    35    11    35    1
    36    11    36    1
    37    12    37    1
    38    12    38    1
    39    14    39    1
    40    14    40    1
    41    15    41    1
    42    15    42    1
    43    17    43    1
    44    18    44    1
