@<TRIPOS>MOLECULE
*****
 36 35 0 0 0
SMALL
GASTEIGER

@<TRIPOS>ATOM
      1 C           0.9465    0.0514    0.0671 C.3     1  UNL1       -0.0653
      2 C           2.4665    0.0514    0.0671 C.3     1  UNL1       -0.0559
      3 C           2.9731   -1.3813    0.1024 C.3     1  UNL1       -0.0533
      4 C           4.4931   -1.3813    0.1024 C.3     1  UNL1       -0.0531
      5 C           4.9998   -2.8139    0.1378 C.3     1  UNL1       -0.0530
      6 C           6.5198   -2.8139    0.1378 C.3     1  UNL1       -0.0516
      7 C           7.0265   -4.2465    0.1732 C.3     1  UNL1       -0.0374
      8 C           8.5465   -4.2465    0.1732 C.3     1  UNL1        0.0116
      9 N           9.0365   -5.6320    0.2074 N.am    1  UNL1       -0.3153
     10 C          10.4817   -5.9006    0.2141 C.2     1  UNL1        0.2128
     11 O          11.3076   -4.9349    0.1902 O.2     1  UNL1       -0.2758
     12 C          10.9884   -7.3332    0.2494 C.3     1  UNL1        0.0211
     13 C          12.5084   -7.3332    0.2494 C.3     1  UNL1       -0.0570
     14 H           0.5898    1.0599    0.0421 H       1  UNL1        0.0230
     15 H           0.5898   -0.4313    0.9529 H       1  UNL1        0.0230
     16 H           0.5898   -0.4745   -0.7939 H       1  UNL1        0.0230
     17 H           2.8231    0.5772    0.9280 H       1  UNL1        0.0263
     18 H           2.8231    0.5340   -0.8188 H       1  UNL1        0.0263
     19 H           2.6165   -1.9071   -0.7585 H       1  UNL1        0.0265
     20 H           2.6165   -1.8639    0.9883 H       1  UNL1        0.0265
     21 H           4.8498   -0.8554    0.9634 H       1  UNL1        0.0265
     22 H           4.8498   -0.8986   -0.7834 H       1  UNL1        0.0265
     23 H           4.6431   -3.3397   -0.7231 H       1  UNL1        0.0265
     24 H           4.6431   -3.2966    1.0237 H       1  UNL1        0.0265
     25 H           6.8765   -2.2881    0.9988 H       1  UNL1        0.0266
     26 H           6.8765   -2.3312   -0.7480 H       1  UNL1        0.0266
     27 H           6.6698   -4.7724   -0.6877 H       1  UNL1        0.0280
     28 H           6.6698   -4.7292    1.0590 H       1  UNL1        0.0280
     29 H           8.9031   -3.7207    1.0341 H       1  UNL1        0.0462
     30 H           8.9031   -3.7639   -0.7126 H       1  UNL1        0.0462
     31 H           8.3967   -6.3801    0.2259 H       1  UNL1        0.1487
     32 H          10.6317   -7.8590   -0.6115 H       1  UNL1        0.0356
     33 H          10.6317   -7.8159    1.1353 H       1  UNL1        0.0356
     34 H          12.8650   -6.8505   -0.6364 H       1  UNL1        0.0234
     35 H          12.8650   -8.3417    0.2743 H       1  UNL1        0.0234
     36 H          12.8650   -6.8074    1.1104 H       1  UNL1        0.0234
@<TRIPOS>BOND
     1     1     2    1
     2     2     3    1
     3     3     4    1
     4     4     5    1
     5     5     6    1
     6     6     7    1
     7     7     8    1
     8     8     9    1
     9     9    10   am
    10    10    11    2
    11    10    12    1
    12    12    13    1
    13     1    14    1
    14     1    15    1
    15     1    16    1
    16     2    17    1
    17     2    18    1
    18     3    19    1
    19     3    20    1
    20     4    21    1
    21     4    22    1
    22     5    23    1
    23     5    24    1
    24     6    25    1
    25     6    26    1
    26     7    27    1
    27     7    28    1
    28     8    29    1
    29     8    30    1
    30     9    31    1
    31    12    32    1
    32    12    33    1
    33    13    34    1
    34    13    35    1
    35    13    36    1
