@<TRIPOS>MOLECULE
*****
 33 32 0 0 0
SMALL
GASTEIGER

@<TRIPOS>ATOM
      1 N           0.9854   -0.0796    0.0587 N.3     1  UNL1       -0.3279
      2 C           2.4554   -0.0796    0.0587 C.3     1  UNL1        0.0166
      3 C           2.9621   -1.4494   -0.3624 C.3     1  UNL1        0.0600
      4 O           4.3821   -1.4494   -0.3624 O.3     1  UNL1       -0.3763
      5 C           4.8554   -2.7291   -0.7558 C.3     1  UNL1        0.0711
      6 C           6.3754   -2.7291   -0.7558 C.3     1  UNL1        0.0711
      7 O           6.8488   -4.0088   -1.1493 O.3     1  UNL1       -0.3752
      8 C           8.2688   -4.0088   -1.1493 C.3     1  UNL1        0.0711
      9 C           8.7754   -5.3785   -1.5704 C.3     1  UNL1        0.0710
     10 O          10.1954   -5.3785   -1.5704 O.3     1  UNL1       -0.3771
     11 C          10.6688   -6.6582   -1.9639 C.3     1  UNL1        0.0542
     12 C          12.1888   -6.6582   -1.9639 C.3     1  UNL1        0.0262
     13 C          12.6954   -8.0280   -2.3850 C.2     1  UNL1        0.1225
     14 O          13.9449   -8.2500   -2.4533 O.2     1  UNL1       -0.3010
     15 H           0.6455    0.8396    0.3413 H       1  UNL1        0.1183
     16 H           0.6454   -0.7840    0.7135 H       1  UNL1        0.1183
     17 H           2.8121    0.1458    1.0420 H       1  UNL1        0.0444
     18 H           2.8121    0.6593   -0.6281 H       1  UNL1        0.0444
     19 H           2.6054   -1.6748   -1.3457 H       1  UNL1        0.0572
     20 H           2.6054   -2.1883    0.3244 H       1  UNL1        0.0572
     21 H           4.4988   -2.9545   -1.7392 H       1  UNL1        0.0583
     22 H           4.4988   -3.4680   -0.0690 H       1  UNL1        0.0583
     23 H           6.7321   -2.5037    0.2275 H       1  UNL1        0.0583
     24 H           6.7321   -1.9902   -1.4427 H       1  UNL1        0.0583
     25 H           8.6254   -3.7834   -0.1660 H       1  UNL1        0.0583
     26 H           8.6254   -3.2699   -1.8361 H       1  UNL1        0.0583
     27 H           8.4188   -5.6039   -2.5537 H       1  UNL1        0.0583
     28 H           8.4188   -6.1174   -0.8836 H       1  UNL1        0.0583
     29 H          10.3121   -6.8836   -2.9472 H       1  UNL1        0.0564
     30 H          10.3121   -7.3971   -1.2770 H       1  UNL1        0.0564
     31 H          12.5454   -6.4328   -0.9806 H       1  UNL1        0.0361
     32 H          12.5454   -5.9193   -2.6507 H       1  UNL1        0.0361
     33 H          12.0248   -8.7778   -2.6155 H       1  UNL1        0.1027
@<TRIPOS>BOND
     1     1     2    1
     2     2     3    1
     3     3     4    1
     4     4     5    1
     5     5     6    1
     6     6     7    1
     7     7     8    1
     8     8     9    1
     9     9    10    1
    10    10    11    1
    11    11    12    1
    12    12    13    1
    13    13    14    2
    14     1    15    1
    15     1    16    1
    16     2    17    1
    17     2    18    1
    18     3    19    1
    19     3    20    1
    20     5    21    1
    21     5    22    1
    22     6    23    1
    23     6    24    1
    24     8    25    1
    25     8    26    1
    26     9    27    1
    27     9    28    1
    28    11    29    1
    29    11    30    1
    30    12    31    1
    31    12    32    1
    32    13    33    1
