@<TRIPOS>MOLECULE
*****
 52 51 0 0 0
SMALL
GASTEIGER

@<TRIPOS>ATOM
      1 C           0.9649    0.0150    0.0924 C.3     1  UNL1        0.0121
      2 C           2.4849    0.0150    0.0924 C.2     1  UNL1        0.2100
      3 O           3.1204   -0.6032   -0.8182 O.2     1  UNL1       -0.2761
      4 N           3.2199    0.7300    1.1457 N.am    1  UNL1       -0.3133
      5 C           4.6899    0.7300    1.1457 C.3     1  UNL1        0.0350
      6 C           5.1966    1.5348    2.3315 C.3     1  UNL1        0.0632
      7 O           6.6166    1.5348    2.3315 O.3     1  UNL1       -0.3760
      8 C           7.0899    2.2867    3.4392 C.3     1  UNL1        0.0711
      9 C           8.6099    2.2867    3.4392 C.3     1  UNL1        0.0711
     10 O           9.0832    3.0386    4.5469 O.3     1  UNL1       -0.3752
     11 C          10.5032    3.0386    4.5469 C.3     1  UNL1        0.0711
     12 C          11.0099    3.8435    5.7326 C.3     1  UNL1        0.0711
     13 O          12.4299    3.8435    5.7326 O.3     1  UNL1       -0.3752
     14 C          12.9032    4.5954    6.8403 C.3     1  UNL1        0.0711
     15 C          14.4232    4.5954    6.8403 C.3     1  UNL1        0.0711
     16 O          14.8965    5.3473    7.9480 O.3     1  UNL1       -0.3752
     17 C          16.3165    5.3473    7.9480 C.3     1  UNL1        0.0711
     18 C          16.8232    6.1521    9.1337 C.3     1  UNL1        0.0711
     19 O          18.2432    6.1521    9.1337 O.3     1  UNL1       -0.3763
     20 C          18.7165    6.9040   10.2414 C.3     1  UNL1        0.0600
     21 C          20.2365    6.9040   10.2414 C.3     1  UNL1        0.0166
     22 N          20.7265    7.6824   11.3881 N.3     1  UNL1       -0.3279
     23 H           0.6082   -0.5516   -0.7422 H       1  UNL1        0.0322
     24 H           0.6082    1.0211    0.0191 H       1  UNL1        0.0322
     25 H           0.6082   -0.4246    1.0004 H       1  UNL1        0.0322
     26 H           2.7277    1.2088    1.8512 H       1  UNL1        0.1488
     27 H           5.0466    1.1695    0.2377 H       1  UNL1        0.0484
     28 H           5.0466   -0.2762    1.2191 H       1  UNL1        0.0484
     29 H           4.8399    1.0953    3.2395 H       1  UNL1        0.0575
     30 H           4.8399    2.5410    2.2581 H       1  UNL1        0.0575
     31 H           6.7332    1.8472    4.3472 H       1  UNL1        0.0583
     32 H           6.7332    3.2929    3.3658 H       1  UNL1        0.0583
     33 H           8.9666    2.7263    2.5312 H       1  UNL1        0.0583
     34 H           8.9666    1.2806    3.5125 H       1  UNL1        0.0583
     35 H          10.8599    3.4782    3.6389 H       1  UNL1        0.0583
     36 H          10.8599    2.0325    4.6202 H       1  UNL1        0.0583
     37 H          10.6532    3.4039    6.6406 H       1  UNL1        0.0583
     38 H          10.6532    4.8496    5.6592 H       1  UNL1        0.0583
     39 H          12.5465    4.1558    7.7483 H       1  UNL1        0.0583
     40 H          12.5465    5.6015    6.7670 H       1  UNL1        0.0583
     41 H          14.7799    5.0349    5.9323 H       1  UNL1        0.0583
     42 H          14.7799    3.5892    6.9136 H       1  UNL1        0.0583
     43 H          16.6732    5.7868    7.0400 H       1  UNL1        0.0583
     44 H          16.6732    4.3411    8.0213 H       1  UNL1        0.0583
     45 H          16.4665    5.7126   10.0417 H       1  UNL1        0.0583
     46 H          16.4665    7.1583    9.0604 H       1  UNL1        0.0583
     47 H          18.3599    6.4645   11.1494 H       1  UNL1        0.0572
     48 H          18.3599    7.9102   10.1681 H       1  UNL1        0.0572
     49 H          20.5932    7.3436    9.3334 H       1  UNL1        0.0444
     50 H          20.5932    5.8979   10.3147 H       1  UNL1        0.0444
     51 H          20.3865    8.6415   11.3182 H       1  UNL1        0.1183
     52 H          21.7465    7.6824   11.3881 H       1  UNL1        0.1183
@<TRIPOS>BOND
     1     1     2    1
     2     2     3    2
     3     2     4   am
     4     4     5    1
     5     5     6    1
     6     6     7    1
     7     7     8    1
     8     8     9    1
     9     9    10    1
    10    10    11    1
    11    11    12    1
    12    12    13    1
    13    13    14    1
    14    14    15    1
    15    15    16    1
    16    16    17    1
    17    17    18    1
    18    18    19    1
    19    19    20    1
    20    20    21    1
    21    21    22    1
    22     1    23    1
    23     1    24    1
    24     1    25    1
    25     4    26    1
    26     5    27    1
    27     5    28    1
    28     6    29    1
    29     6    30    1
    30     8    31    1
    31     8    32    1
    32     9    33    1
    33     9    34    1
    34    11    35    1
    35    11    36    1
    36    12    37    1
    37    12    38    1
    38    14    39    1
    39    14    40    1
    40    15    41    1
    41    15    42    1
    42    17    43    1
    43    17    44    1
    44    18    45    1
    45    18    46    1
    46    20    47    1
    47    20    48    1
    48    21    49    1
    49    21    50    1
    50    22    51    1
    51    22    52    1
