@<TRIPOS>MOLECULE
*****
 23 22 0 0 0
SMALL
GASTEIGER

@<TRIPOS>ATOM
      1 C           0.9949   -0.0729    0.0683 C.3     1  UNL1       -0.0493
      2 C           2.5149   -0.0729    0.0683 C.3     1  UNL1        0.0119
      3 N           3.0049   -1.0826    1.0176 N.am    1  UNL1       -0.3010
      4 C           2.0496   -1.8967    1.7829 C.3     1  UNL1        0.0119
      5 C           0.6311   -1.4988    1.4088 C.3     1  UNL1       -0.0493
      6 C           4.4501   -1.2783    1.2016 C.2     1  UNL1        0.2292
      7 O           5.2760   -0.5746    0.5399 O.2     1  UNL1       -0.2742
      8 C           4.9568   -2.3224    2.1832 C.3     1  UNL1        0.0709
      9 N           6.4268   -2.3224    2.1832 N.3     1  UNL1       -0.3225
     10 H           0.6382    0.6621   -0.6227 H       1  UNL1        0.0245
     11 H           0.6382    0.1580    1.0503 H       1  UNL1        0.0245
     12 H           0.6382   -1.0388   -0.2227 H       1  UNL1        0.0245
     13 H           2.8715    0.8930    0.3593 H       1  UNL1        0.0462
     14 H           2.8715   -0.3038   -0.9137 H       1  UNL1        0.0462
     15 H           2.2012   -1.7346    2.8296 H       1  UNL1        0.0462
     16 H           2.2012   -2.9314    1.5566 H       1  UNL1        0.0462
     17 H           0.4795   -0.4640    1.6351 H       1  UNL1        0.0245
     18 H          -0.0642   -2.0913    1.9659 H       1  UNL1        0.0245
     19 H           0.4795   -1.6609    0.3621 H       1  UNL1        0.0245
     20 H           4.6001   -3.2884    1.8922 H       1  UNL1        0.0518
     21 H           4.6001   -2.0915    3.1652 H       1  UNL1        0.0518
     22 H           6.7668   -2.5426    1.2471 H       1  UNL1        0.1186
     23 H           6.7668   -3.0231    2.8419 H       1  UNL1        0.1186
@<TRIPOS>BOND
     1     1     2    1
     2     2     3    1
     3     3     4    1
     4     4     5    1
     5     3     6   am
     6     6     7    2
     7     6     8    1
     8     8     9    1
     9     1    10    1
    10     1    11    1
    11     1    12    1
    12     2    13    1
    13     2    14    1
    14     4    15    1
    15     4    16    1
    16     5    17    1
    17     5    18    1
    18     5    19    1
    19     8    20    1
    20     8    21    1
    21     9    22    1
    22     9    23    1
