@<TRIPOS>MOLECULE
*****
 39 38 0 0 0
SMALL
GASTEIGER

@<TRIPOS>ATOM
      1 C           1.0626    0.0668   -0.0403 C.3     1  UNL1       -0.0653
      2 C           2.5826    0.0668   -0.0403 C.3     1  UNL1       -0.0559
      3 C           3.0892   -1.0788    0.8207 C.3     1  UNL1       -0.0533
      4 C           4.6092   -1.0788    0.8207 C.3     1  UNL1       -0.0531
      5 C           5.1159   -2.2244    1.6817 C.3     1  UNL1       -0.0531
      6 C           6.6359   -2.2244    1.6817 C.3     1  UNL1       -0.0531
      7 C           7.1426   -3.3700    2.5426 C.3     1  UNL1       -0.0531
      8 C           8.6626   -3.3700    2.5426 C.3     1  UNL1       -0.0530
      9 C           9.1692   -4.5157    3.4036 C.3     1  UNL1       -0.0516
     10 C          10.6892   -4.5157    3.4036 C.3     1  UNL1       -0.0374
     11 C          11.1959   -5.6613    4.2645 C.3     1  UNL1        0.0113
     12 N          12.6659   -5.6613    4.2645 N.am    1  UNL1       -0.3179
     13 C          13.4009   -6.6790    5.0294 C.2     1  UNL1        0.1999
     14 O          14.6718   -6.6790    5.0294 O.2     1  UNL1       -0.2795
     15 H           0.7059    0.8733   -0.6463 H       1  UNL1        0.0230
     16 H           0.7059    0.1885    0.9612 H       1  UNL1        0.0230
     17 H           0.7059   -0.8613   -0.4356 H       1  UNL1        0.0230
     18 H           2.9392    0.9949    0.3551 H       1  UNL1        0.0263
     19 H           2.9392   -0.0548   -1.0417 H       1  UNL1        0.0263
     20 H           2.7326   -2.0069    0.4253 H       1  UNL1        0.0265
     21 H           2.7326   -0.9572    1.8221 H       1  UNL1        0.0265
     22 H           4.9659   -0.1507    1.2161 H       1  UNL1        0.0265
     23 H           4.9659   -1.2005   -0.1807 H       1  UNL1        0.0265
     24 H           4.7592   -3.1525    1.2863 H       1  UNL1        0.0265
     25 H           4.7592   -2.1028    2.6831 H       1  UNL1        0.0265
     26 H           6.9926   -1.2963    2.0770 H       1  UNL1        0.0265
     27 H           6.9926   -2.3461    0.6802 H       1  UNL1        0.0265
     28 H           6.7859   -4.2981    2.1472 H       1  UNL1        0.0265
     29 H           6.7859   -3.2484    3.5441 H       1  UNL1        0.0265
     30 H           9.0192   -2.4419    2.9380 H       1  UNL1        0.0265
     31 H           9.0192   -3.4917    1.5412 H       1  UNL1        0.0265
     32 H           8.8126   -5.4438    3.0082 H       1  UNL1        0.0266
     33 H           8.8126   -4.3940    4.4050 H       1  UNL1        0.0266
     34 H          11.0459   -3.5876    3.7990 H       1  UNL1        0.0280
     35 H          11.0459   -4.6373    2.4021 H       1  UNL1        0.0280
     36 H          10.8392   -6.5894    3.8692 H       1  UNL1        0.0462
     37 H          10.8392   -5.5396    5.2660 H       1  UNL1        0.0462
     38 H          13.1581   -4.9797    3.7523 H       1  UNL1        0.1484
     39 H          12.8849   -7.3935    5.5663 H       1  UNL1        0.1251
@<TRIPOS>BOND
     1     1     2    1
     2     2     3    1
     3     3     4    1
     4     4     5    1
     5     5     6    1
     6     6     7    1
     7     7     8    1
     8     8     9    1
     9     9    10    1
    10    10    11    1
    11    11    12    1
    12    12    13   am
    13    13    14    2
    14     1    15    1
    15     1    16    1
    16     1    17    1
    17     2    18    1
    18     2    19    1
    19     3    20    1
    20     3    21    1
    21     4    22    1
    22     4    23    1
    23     5    24    1
    24     5    25    1
    25     6    26    1
    26     6    27    1
    27     7    28    1
    28     7    29    1
    29     8    30    1
    30     8    31    1
    31     9    32    1
    32     9    33    1
    33    10    34    1
    34    10    35    1
    35    11    36    1
    36    11    37    1
    37    12    38    1
    38    13    39    1
