@<TRIPOS>MOLECULE
*****
 54 54 0 0 0
SMALL
GASTEIGER

@<TRIPOS>ATOM
      1 N           0.9634    0.0683    0.0632 N.3     1  UNL1       -0.3279
      2 C           2.4334    0.0683    0.0632 C.3     1  UNL1        0.0166
      3 C           2.9401    1.1711   -0.8520 C.3     1  UNL1        0.0600
      4 O           4.3601    1.1711   -0.8520 O.3     1  UNL1       -0.3763
      5 C           4.8334    2.2013   -1.7069 C.3     1  UNL1        0.0711
      6 C           6.3534    2.2013   -1.7069 C.3     1  UNL1        0.0711
      7 O           6.8267    3.2316   -2.5619 O.3     1  UNL1       -0.3752
      8 C           8.2467    3.2316   -2.5619 C.3     1  UNL1        0.0711
      9 C           8.7534    4.3344   -3.4771 C.3     1  UNL1        0.0711
     10 O          10.1734    4.3344   -3.4771 O.3     1  UNL1       -0.3752
     11 C          10.6467    5.3646   -4.3320 C.3     1  UNL1        0.0711
     12 C          12.1667    5.3646   -4.3320 C.3     1  UNL1        0.0711
     13 O          12.6401    6.3948   -5.1870 O.3     1  UNL1       -0.3757
     14 C          14.0601    6.3948   -5.1870 C.3     1  UNL1        0.0673
     15 C          14.5667    7.4976   -6.1022 C.3     1  UNL1        0.0665
     16 N          16.0367    7.4976   -6.1022 N.ar    1  UNL1       -0.2492
     17 C          16.7331    8.4258   -6.8725 C.ar    1  UNL1        0.0487
     18 C          18.1733    8.4258   -6.8725 C.ar    1  UNL1        0.0829
     19 C          18.9333    7.4129   -6.0319 C.3     1  UNL1       -0.0051
     20 C          17.9456    6.5238   -5.2941 C.3     1  UNL1       -0.0242
     21 C          18.7056    5.5108   -4.4534 C.3     1  UNL1        0.0446
     22 O          17.7828    4.6803   -3.7642 O.3     1  UNL1       -0.3950
     23 N          18.8697    9.3541   -7.6428 N.ar    1  UNL1       -0.1345
     24 N          16.7094    6.6010   -5.3581 N.ar    1  UNL1       -0.0654
     25 H           0.6234   -0.6717    0.6773 H       1  UNL1        0.1183
     26 H           0.6234   -0.0935   -0.8847 H       1  UNL1        0.1183
     27 H           2.7901   -0.8778   -0.2870 H       1  UNL1        0.0444
     28 H           2.7901    0.2381    1.0576 H       1  UNL1        0.0444
     29 H           2.5834    2.1172   -0.5018 H       1  UNL1        0.0572
     30 H           2.5834    1.0013   -1.8464 H       1  UNL1        0.0572
     31 H           4.4767    3.1474   -1.3568 H       1  UNL1        0.0583
     32 H           4.4767    2.0316   -2.7013 H       1  UNL1        0.0583
     33 H           6.7101    1.2553   -2.0571 H       1  UNL1        0.0583
     34 H           6.7101    2.3711   -0.7125 H       1  UNL1        0.0583
     35 H           8.6034    2.2855   -2.9121 H       1  UNL1        0.0583
     36 H           8.6034    3.4013   -1.5675 H       1  UNL1        0.0583
     37 H           8.3967    5.2804   -3.1269 H       1  UNL1        0.0583
     38 H           8.3967    4.1646   -4.4715 H       1  UNL1        0.0583
     39 H          10.2901    6.3107   -3.9819 H       1  UNL1        0.0583
     40 H          10.2901    5.1948   -5.3265 H       1  UNL1        0.0583
     41 H          12.5234    4.4185   -4.6822 H       1  UNL1        0.0583
     42 H          12.5234    5.5344   -3.3376 H       1  UNL1        0.0583
     43 H          14.4167    5.4488   -5.5372 H       1  UNL1        0.0578
     44 H          14.4167    6.5646   -4.1926 H       1  UNL1        0.0578
     45 H          14.2101    8.4437   -5.7520 H       1  UNL1        0.0532
     46 H          14.2100    7.3278   -7.0966 H       1  UNL1        0.0532
     47 H          16.2171    9.1136   -7.4433 H       1  UNL1        0.0845
     48 H          19.5485    7.9272   -5.3234 H       1  UNL1        0.0330
     49 H          19.5485    6.8113   -6.6680 H       1  UNL1        0.0330
     50 H          17.3304    6.0095   -6.0026 H       1  UNL1        0.0291
     51 H          17.3304    7.1254   -4.6580 H       1  UNL1        0.0291
     52 H          19.3207    6.0251   -3.7449 H       1  UNL1        0.0557
     53 H          19.3207    4.9093   -5.0895 H       1  UNL1        0.0557
     54 H          17.2252    5.2256   -3.1875 H       1  UNL1        0.2094
@<TRIPOS>BOND
     1     1     2    1
     2     2     3    1
     3     3     4    1
     4     4     5    1
     5     5     6    1
     6     6     7    1
     7     7     8    1
     8     8     9    1
     9     9    10    1
    10    10    11    1
    11    11    12    1
    12    12    13    1
    13    13    14    1
    14    14    15    1
    15    15    16    1
    16    16    17   ar
    17    17    18   ar
    18    18    19    1
    19    19    20    1
    20    20    21    1
    21    21    22    1
    22    18    23   ar
    23    23    24   ar
    24    16    24   ar
    25     1    25    1
    26     1    26    1
    27     2    27    1
    28     2    28    1
    29     3    29    1
    30     3    30    1
    31     5    31    1
    32     5    32    1
    33     6    33    1
    34     6    34    1
    35     8    35    1
    36     8    36    1
    37     9    37    1
    38     9    38    1
    39    11    39    1
    40    11    40    1
    41    12    41    1
    42    12    42    1
    43    14    43    1
    44    14    44    1
    45    15    45    1
    46    15    46    1
    47    17    47    1
    48    19    48    1
    49    19    49    1
    50    20    50    1
    51    20    51    1
    52    21    52    1
    53    21    53    1
    54    22    54    1
