@<TRIPOS>MOLECULE
*****
 35 35 0 0 0
SMALL
GASTEIGER

@<TRIPOS>ATOM
      1 C           1.0578    0.0023    0.0816 C.3     1  UNL1       -0.0653
      2 C           2.5778    0.0023    0.0816 C.3     1  UNL1       -0.0559
      3 C           3.0845   -1.1399   -0.7839 C.3     1  UNL1       -0.0533
      4 C           4.6045   -1.1399   -0.7839 C.3     1  UNL1       -0.0531
      5 C           5.1111   -2.2822   -1.6493 C.3     1  UNL1       -0.0531
      6 C           6.6311   -2.2822   -1.6493 C.3     1  UNL1       -0.0530
      7 C           7.1378   -3.4244   -2.5148 C.3     1  UNL1       -0.0514
      8 C           8.6578   -3.4244   -2.5148 C.3     1  UNL1       -0.0333
      9 C           9.1645   -4.5666   -3.3802 C.3     1  UNL1        0.0432
     10 N          10.6345   -4.5666   -3.3802 N.ar    1  UNL1       -0.2517
     11 C          11.3309   -5.5281   -4.1087 C.ar    1  UNL1        0.0454
     12 C          12.7711   -5.5281   -4.1087 C.ar    1  UNL1        0.0693
     13 N          13.4675   -6.4895   -4.8371 N.ar    1  UNL1       -0.1380
     14 N          11.3072   -3.6379   -2.6766 N.ar    1  UNL1       -0.0657
     15 H           0.7012    0.8064    0.6908 H       1  UNL1        0.0230
     16 H           0.7011   -0.9273    0.4733 H       1  UNL1        0.0230
     17 H           0.7011    0.1279   -0.9194 H       1  UNL1        0.0230
     18 H           2.9345   -0.1233    1.0825 H       1  UNL1        0.0263
     19 H           2.9345    0.9319   -0.3102 H       1  UNL1        0.0263
     20 H           2.7278   -1.0144   -1.7848 H       1  UNL1        0.0265
     21 H           2.7278   -2.0696   -0.3922 H       1  UNL1        0.0265
     22 H           4.9611   -1.2655    0.2171 H       1  UNL1        0.0265
     23 H           4.9611   -0.2103   -1.1756 H       1  UNL1        0.0265
     24 H           4.7545   -2.1566   -2.6503 H       1  UNL1        0.0265
     25 H           4.7545   -3.2118   -1.2576 H       1  UNL1        0.0265
     26 H           6.9878   -2.4077   -0.6484 H       1  UNL1        0.0265
     27 H           6.9878   -1.3525   -2.0411 H       1  UNL1        0.0265
     28 H           6.7811   -3.2988   -3.5157 H       1  UNL1        0.0266
     29 H           6.7811   -4.3540   -2.1231 H       1  UNL1        0.0266
     30 H           9.0145   -3.5500   -1.5138 H       1  UNL1        0.0283
     31 H           9.0145   -2.4948   -2.9065 H       1  UNL1        0.0283
     32 H           8.8078   -4.4411   -4.3812 H       1  UNL1        0.0509
     33 H           8.8078   -5.4963   -2.9885 H       1  UNL1        0.0509
     34 H          10.8149   -6.2404   -4.6484 H       1  UNL1        0.0842
     35 H          13.2871   -4.8157   -3.5689 H       1  UNL1        0.0864
@<TRIPOS>BOND
     1     1     2    1
     2     2     3    1
     3     3     4    1
     4     4     5    1
     5     5     6    1
     6     6     7    1
     7     7     8    1
     8     8     9    1
     9     9    10    1
    10    10    11   ar
    11    11    12   ar
    12    12    13   ar
    13    13    14   ar
    14    10    14   ar
    15     1    15    1
    16     1    16    1
    17     1    17    1
    18     2    18    1
    19     2    19    1
    20     3    20    1
    21     3    21    1
    22     4    22    1
    23     4    23    1
    24     5    24    1
    25     5    25    1
    26     6    26    1
    27     6    27    1
    28     7    28    1
    29     7    29    1
    30     8    30    1
    31     8    31    1
    32     9    32    1
    33     9    33    1
    34    11    34    1
    35    12    35    1
