@<TRIPOS>MOLECULE
*****
 30 30 0 0 0
SMALL
GASTEIGER

@<TRIPOS>ATOM
      1 C           1.0493    0.0574    0.0654 C.1     1  UNL1       -0.1169
      2 C           2.3532    0.0574    0.0654 C.1     1  UNL1       -0.0773
      3 C           3.8732    0.0574    0.0654 C.3     1  UNL1        0.1081
      4 O           4.3465    0.7917    1.1848 O.3     1  UNL1       -0.3655
      5 C           5.7665    0.7917    1.1848 C.3     1  UNL1        0.0684
      6 C           6.2732    1.5778    2.3830 C.3     1  UNL1        0.0666
      7 N           7.7432    1.5778    2.3830 N.ar    1  UNL1       -0.2492
      8 C           8.4396    2.2394    3.3916 C.ar    1  UNL1        0.0487
      9 C           9.8798    2.2394    3.3916 C.ar    1  UNL1        0.0829
     10 C          10.6398    1.5174    2.2909 C.3     1  UNL1       -0.0051
     11 C           9.6521    0.8837    1.3249 C.3     1  UNL1       -0.0242
     12 C          10.4121    0.1616    0.2243 C.3     1  UNL1        0.0446
     13 O           9.4893   -0.4304   -0.6782 O.3     1  UNL1       -0.3950
     14 N          10.5762    2.9010    4.4002 N.ar    1  UNL1       -0.1345
     15 N           8.4159    0.9387    1.4088 N.ar    1  UNL1       -0.0654
     16 H           0.0553    0.0574    0.0654 H       1  UNL1        0.1229
     17 H           4.2299    0.5112   -0.8356 H       1  UNL1        0.0697
     18 H           4.2299   -0.9498    0.1228 H       1  UNL1        0.0697
     19 H           6.1232    1.2456    0.2838 H       1  UNL1        0.0578
     20 H           6.1232   -0.2154    1.2422 H       1  UNL1        0.0578
     21 H           5.9165    1.1239    3.2840 H       1  UNL1        0.0532
     22 H           5.9165    2.5849    2.3256 H       1  UNL1        0.0532
     23 H           7.9236    2.7296    4.1389 H       1  UNL1        0.0845
     24 H          11.2550    0.7558    2.7228 H       1  UNL1        0.0330
     25 H          11.2550    2.2168    1.7644 H       1  UNL1        0.0330
     26 H           9.0369    1.6453    0.8931 H       1  UNL1        0.0291
     27 H           9.0369    0.1843    1.8515 H       1  UNL1        0.0291
     28 H          11.0272   -0.6000    0.6561 H       1  UNL1        0.0557
     29 H          11.0272    0.8610   -0.3023 H       1  UNL1        0.0557
     30 H           8.9316   -1.0644   -0.2008 H       1  UNL1        0.2094
@<TRIPOS>BOND
     1     1     2    3
     2     2     3    1
     3     3     4    1
     4     4     5    1
     5     5     6    1
     6     6     7    1
     7     7     8   ar
     8     8     9   ar
     9     9    10    1
    10    10    11    1
    11    11    12    1
    12    12    13    1
    13     9    14   ar
    14    14    15   ar
    15     7    15   ar
    16     1    16    1
    17     3    17    1
    18     3    18    1
    19     5    19    1
    20     5    20    1
    21     6    21    1
    22     6    22    1
    23     8    23    1
    24    10    24    1
    25    10    25    1
    26    11    26    1
    27    11    27    1
    28    12    28    1
    29    12    29    1
    30    13    30    1
