@<TRIPOS>MOLECULE
*****
 55 55 0 0 0
SMALL
GASTEIGER

@<TRIPOS>ATOM
      1 C           1.0262    0.0889   -0.0376 C.3     1  UNL1       -0.0416
      2 C           2.5462    0.0889   -0.0376 C.3     1  UNL1        0.0449
      3 O           3.0196   -0.6247   -1.1703 O.3     1  UNL1       -0.3778
      4 C           4.4396   -0.6247   -1.1703 C.3     1  UNL1        0.0710
      5 C           4.9462   -1.3884   -2.3829 C.3     1  UNL1        0.0711
      6 O           6.3662   -1.3884   -2.3829 O.3     1  UNL1       -0.3752
      7 C           6.8395   -2.1020   -3.5157 C.3     1  UNL1        0.0711
      8 C           8.3595   -2.1020   -3.5157 C.3     1  UNL1        0.0711
      9 O           8.8329   -2.8155   -4.6485 O.3     1  UNL1       -0.3752
     10 C          10.2529   -2.8155   -4.6485 C.3     1  UNL1        0.0711
     11 C          10.7595   -3.5793   -5.8610 C.3     1  UNL1        0.0711
     12 O          12.1795   -3.5793   -5.8610 O.3     1  UNL1       -0.3757
     13 C          12.6529   -4.2929   -6.9938 C.3     1  UNL1        0.0673
     14 C          14.1729   -4.2929   -6.9938 C.3     1  UNL1        0.0665
     15 N          14.6629   -5.0316   -8.1665 N.ar    1  UNL1       -0.2492
     16 C          16.0322   -5.1672   -8.3819 C.ar    1  UNL1        0.0487
     17 C          16.5123   -5.8909   -9.5308 C.ar    1  UNL1        0.0829
     18 C          15.5245   -6.5067  -10.5083 C.3     1  UNL1       -0.0067
     19 C          14.1061   -6.2156  -10.0462 C.3     1  UNL1       -0.0393
     20 C          13.1183   -6.8313  -11.0237 C.3     1  UNL1        0.0241
     21 C          11.6998   -6.5402  -10.5616 C.2     1  UNL1        0.2105
     22 N          11.4713   -5.7663   -9.3329 N.am    1  UNL1       -0.3293
     23 O          10.7113   -6.9660  -11.2375 O.2     1  UNL1       -0.2760
     24 N          17.8817   -6.0266   -9.7461 N.ar    1  UNL1       -0.1345
     25 N          13.7885   -5.5766   -9.0318 N.ar    1  UNL1       -0.0654
     26 H           0.6696    0.6266    0.8160 H       1  UNL1        0.0252
     27 H           0.6696   -0.9192    0.0013 H       1  UNL1        0.0252
     28 H           0.6696    0.5593   -0.9300 H       1  UNL1        0.0252
     29 H           2.9029   -0.3815    0.8549 H       1  UNL1        0.0557
     30 H           2.9029    1.0970   -0.0764 H       1  UNL1        0.0557
     31 H           4.7962   -1.0950   -0.2779 H       1  UNL1        0.0583
     32 H           4.7962    0.3834   -1.2092 H       1  UNL1        0.0583
     33 H           4.5895   -0.9181   -3.2753 H       1  UNL1        0.0583
     34 H           4.5895   -2.3965   -2.3441 H       1  UNL1        0.0583
     35 H           6.4829   -1.6316   -4.4081 H       1  UNL1        0.0583
     36 H           6.4829   -3.1101   -3.4768 H       1  UNL1        0.0583
     37 H           8.7162   -2.5724   -2.6233 H       1  UNL1        0.0583
     38 H           8.7162   -1.0939   -3.5545 H       1  UNL1        0.0583
     39 H          10.6095   -3.2859   -3.7561 H       1  UNL1        0.0583
     40 H          10.6095   -1.8075   -4.6873 H       1  UNL1        0.0583
     41 H          10.4029   -3.1090   -6.7535 H       1  UNL1        0.0583
     42 H          10.4029   -4.5874   -5.8222 H       1  UNL1        0.0583
     43 H          12.2962   -3.8225   -7.8863 H       1  UNL1        0.0578
     44 H          12.2962   -5.3009   -6.9550 H       1  UNL1        0.0578
     45 H          14.5295   -4.7633   -6.1014 H       1  UNL1        0.0532
     46 H          14.5295   -3.2848   -7.0327 H       1  UNL1        0.0532
     47 H          16.7029   -4.7491   -7.7182 H       1  UNL1        0.0845
     48 H          15.6762   -7.5651  -10.5494 H       1  UNL1        0.0329
     49 H          15.6762   -6.0866  -11.4807 H       1  UNL1        0.0329
     50 H          13.9544   -5.1572  -10.0051 H       1  UNL1        0.0273
     51 H          13.9544   -6.6356   -9.0738 H       1  UNL1        0.0273
     52 H          13.2699   -7.8897  -11.0648 H       1  UNL1        0.0358
     53 H          13.2699   -6.4113  -11.9961 H       1  UNL1        0.0358
     54 H          12.2371   -5.4365   -8.8094 H       1  UNL1        0.1449
     55 H          10.5526   -5.5778   -9.0336 H       1  UNL1        0.1449
@<TRIPOS>BOND
     1     1     2    1
     2     2     3    1
     3     3     4    1
     4     4     5    1
     5     5     6    1
     6     6     7    1
     7     7     8    1
     8     8     9    1
     9     9    10    1
    10    10    11    1
    11    11    12    1
    12    12    13    1
    13    13    14    1
    14    14    15    1
    15    15    16   ar
    16    16    17   ar
    17    17    18    1
    18    18    19    1
    19    19    20    1
    20    20    21    1
    21    21    22   am
    22    21    23    2
    23    17    24   ar
    24    24    25   ar
    25    15    25   ar
    26     1    26    1
    27     1    27    1
    28     1    28    1
    29     2    29    1
    30     2    30    1
    31     4    31    1
    32     4    32    1
    33     5    33    1
    34     5    34    1
    35     7    35    1
    36     7    36    1
    37     8    37    1
    38     8    38    1
    39    10    39    1
    40    10    40    1
    41    11    41    1
    42    11    42    1
    43    13    43    1
    44    13    44    1
    45    14    45    1
    46    14    46    1
    47    16    47    1
    48    18    48    1
    49    18    49    1
    50    19    50    1
    51    19    51    1
    52    20    52    1
    53    20    53    1
    54    22    54    1
    55    22    55    1
