@<TRIPOS>MOLECULE
*****
 25 26 0 0 0
SMALL
GASTEIGER

@<TRIPOS>ATOM
      1 C           0.9234    0.0299    0.0569 C.3     1  UNL1        0.0087
      2 C           2.4434    0.0299    0.0569 C.3     1  UNL1        0.0118
      3 N           2.9334    0.4160    1.3880 N.3     1  UNL1       -0.2946
      4 C           2.4434   -0.5437    2.3879 C.3     1  UNL1        0.0354
      5 C           0.9234   -0.5437    2.3879 C.3     1  UNL1        0.0128
      6 N           0.4334   -1.5034    3.3878 N.3     1  UNL1       -0.3129
      7 C           2.9501   -0.1445    3.7642 C.3     1  UNL1        0.0128
      8 C           4.4034    0.4160    1.3880 C.3     1  UNL1        0.0118
      9 C           4.9101    0.8152    2.7643 C.3     1  UNL1        0.0087
     10 N           0.4334   -0.3561   -1.2741 N.3     1  UNL1       -0.3136
     11 H           0.5668    1.0095    0.2980 H       1  UNL1        0.0437
     12 H           0.5668   -0.6686    0.7847 H       1  UNL1        0.0437
     13 H           2.8001    0.7285   -0.6709 H       1  UNL1        0.0439
     14 H           2.8001   -0.9496   -0.1841 H       1  UNL1        0.0439
     15 H           2.8001   -1.5233    2.1468 H       1  UNL1        0.0488
     16 H           0.5668   -0.8247    1.4190 H       1  UNL1        0.0440
     17 H           0.5668    0.4359    2.6289 H       1  UNL1        0.0440
     18 H           0.4174   -2.5008    3.1748 H       1  UNL1        0.1220
     19 H           3.7805   -0.6561    4.2042 H       1  UNL1        0.0440
     20 H           3.2717    0.7626    4.2319 H       1  UNL1        0.0440
     21 H           4.7601    1.1146    0.6602 H       1  UNL1        0.0439
     22 H           4.7601   -0.5636    1.1469 H       1  UNL1        0.0439
     23 H           5.2477    1.7984    3.0178 H       1  UNL1        0.0437
     24 H           5.4121    0.5023    3.6559 H       1  UNL1        0.0437
     25 H           0.1116   -1.2934   -1.5158 H       1  UNL1        0.1220
@<TRIPOS>BOND
     1     1     2    1
     2     2     3    1
     3     3     4    1
     4     4     5    1
     5     5     6    1
     6     6     7    1
     7     4     7    1
     8     3     8    1
     9     8     9    1
    10     9    10    1
    11     1    10    1
    12     1    11    1
    13     1    12    1
    14     2    13    1
    15     2    14    1
    16     4    15    1
    17     5    16    1
    18     5    17    1
    19     6    18    1
    20     7    19    1
    21     7    20    1
    22     8    21    1
    23     8    22    1
    24     9    23    1
    25     9    24    1
    26    10    25    1
