@<TRIPOS>MOLECULE
*****
 44 46 0 0 0
SMALL
GASTEIGER

@<TRIPOS>ATOM
      1 C           0.9690   -0.0948    0.0064 C.3     1  UNL1        0.0087
      2 C           2.4890   -0.0948    0.0064 C.3     1  UNL1        0.0118
      3 N           2.9790   -1.1987    0.8445 N.3     1  UNL1       -0.2970
      4 C           2.4890   -2.4764    0.3077 C.3     1  UNL1        0.0105
      5 C           0.9690   -2.4764    0.3077 C.3     1  UNL1       -0.0368
      6 C           0.4623   -3.7975   -0.2475 C.3     1  UNL1       -0.0459
      7 C          -1.0577   -3.7975   -0.2475 C.3     1  UNL1       -0.0268
      8 C          -1.5644   -2.6562   -1.1141 C.3     1  UNL1       -0.0347
      9 C          -1.0577   -1.3350   -0.5589 C.3     1  UNL1       -0.0036
     10 N          -1.5477   -0.2312   -1.3970 N.3     1  UNL1       -0.3159
     11 C          -1.0577    1.0465   -0.8601 C.3     1  UNL1       -0.0036
     12 C          -1.5644   -3.6177    1.1743 C.3     1  UNL1       -0.0347
     13 C          -1.5644   -5.1187   -0.8026 C.3     1  UNL1       -0.0459
     14 C           2.9956   -3.6177    1.1743 C.3     1  UNL1       -0.0368
     15 C           4.4490   -1.1987    0.8445 C.3     1  UNL1        0.0118
     16 C           4.9556   -2.3400    1.7112 C.3     1  UNL1        0.0087
     17 N           0.4790    1.0090   -0.8317 N.3     1  UNL1       -0.3136
     18 H           0.6123    0.0317    1.0073 H       1  UNL1        0.0437
     19 H           0.6123   -1.0249   -0.3843 H       1  UNL1        0.0437
     20 H           2.8456    0.8352    0.3972 H       1  UNL1        0.0439
     21 H           2.8456   -0.2214   -0.9944 H       1  UNL1        0.0439
     22 H           2.8456   -2.6030   -0.6932 H       1  UNL1        0.0462
     23 H           0.6123   -1.6729   -0.3024 H       1  UNL1        0.0280
     24 H           0.6123   -2.3498    1.3085 H       1  UNL1        0.0280
     25 H           0.8190   -4.6010    0.3626 H       1  UNL1        0.0271
     26 H           0.8190   -3.9241   -1.2483 H       1  UNL1        0.0271
     27 H          -2.6344   -2.6562   -1.1141 H       1  UNL1        0.0283
     28 H          -1.2077   -2.7828   -2.1149 H       1  UNL1        0.0283
     29 H           0.0123   -1.3350   -0.5589 H       1  UNL1        0.0424
     30 H          -1.4144   -1.2084    0.4419 H       1  UNL1        0.0424
     31 H          -2.5677   -0.2312   -1.3970 H       1  UNL1        0.1219
     32 H          -1.7214    1.8480   -0.6113 H       1  UNL1        0.0424
     33 H          -0.3057    1.7838   -1.0495 H       1  UNL1        0.0424
     34 H          -2.5539   -3.9587    1.3967 H       1  UNL1        0.0283
     35 H          -1.1643   -4.0037    2.0886 H       1  UNL1        0.0283
     36 H          -1.7027   -5.2768   -1.8518 H       1  UNL1        0.0271
     37 H          -2.3368   -5.8399   -0.6352 H       1  UNL1        0.0271
     38 H           3.8730   -4.1367    0.8490 H       1  UNL1        0.0280
     39 H           3.3144   -3.5988    2.1955 H       1  UNL1        0.0280
     40 H           4.8056   -0.2686    1.2353 H       1  UNL1        0.0439
     41 H           4.8056   -1.3252   -0.1563 H       1  UNL1        0.0439
     42 H           5.2933   -2.2237    2.7198 H       1  UNL1        0.0437
     43 H           5.4576   -3.2845    1.7391 H       1  UNL1        0.0437
     44 H           0.1571    0.8981   -1.7932 H       1  UNL1        0.1220
@<TRIPOS>BOND
     1     1     2    1
     2     2     3    1
     3     3     4    1
     4     4     5    1
     5     5     6    1
     6     6     7    1
     7     7     8    1
     8     8     9    1
     9     9    10    1
    10    10    11    1
    11    11    12    1
    12     7    12    1
    13     7    13    1
    14    13    14    1
    15     4    14    1
    16     3    15    1
    17    15    16    1
    18    16    17    1
    19     1    17    1
    20     1    18    1
    21     1    19    1
    22     2    20    1
    23     2    21    1
    24     4    22    1
    25     5    23    1
    26     5    24    1
    27     6    25    1
    28     6    26    1
    29     8    27    1
    30     8    28    1
    31     9    29    1
    32     9    30    1
    33    10    31    1
    34    11    32    1
    35    11    33    1
    36    12    34    1
    37    12    35    1
    38    13    36    1
    39    13    37    1
    40    14    38    1
    41    14    39    1
    42    15    40    1
    43    15    41    1
    44    16    42    1
    45    16    43    1
    46    17    44    1
