@<TRIPOS>MOLECULE
*****
 33 32 0 0 0
SMALL
GASTEIGER

@<TRIPOS>ATOM
      1 C           1.0505   -0.0399   -0.0766 C.3     1  UNL1       -0.0653
      2 C           2.5705   -0.0399   -0.0766 C.3     1  UNL1       -0.0559
      3 C           3.0772    1.2060   -0.7848 C.3     1  UNL1       -0.0533
      4 C           4.5972    1.2060   -0.7848 C.3     1  UNL1       -0.0531
      5 C           5.1038    2.4518   -1.4930 C.3     1  UNL1       -0.0530
      6 C           6.6238    2.4518   -1.4930 C.3     1  UNL1       -0.0516
      7 C           7.1305    3.6976   -2.2013 C.3     1  UNL1       -0.0374
      8 C           8.6505    3.6976   -2.2013 C.3     1  UNL1        0.0116
      9 N           9.1405    4.9025   -2.8862 N.am    1  UNL1       -0.3155
     10 C          10.5857    5.1360   -3.0190 C.2     1  UNL1        0.2099
     11 C          11.5735    4.1316   -2.4480 C.3     1  UNL1        0.0121
     12 O          11.0094    6.1777   -3.6111 O.2     1  UNL1       -0.2761
     13 H           0.6938   -0.9169    0.4220 H       1  UNL1        0.0230
     14 H           0.6938   -0.0331   -1.0853 H       1  UNL1        0.0230
     15 H           0.6938    0.8304    0.4337 H       1  UNL1        0.0230
     16 H           2.9272   -0.9101   -0.5868 H       1  UNL1        0.0263
     17 H           2.9272   -0.0466    0.9322 H       1  UNL1        0.0263
     18 H           2.7205    2.0762   -0.2746 H       1  UNL1        0.0265
     19 H           2.7205    1.2127   -1.7936 H       1  UNL1        0.0265
     20 H           4.9538    0.3357   -1.2950 H       1  UNL1        0.0265
     21 H           4.9538    1.1992    0.2240 H       1  UNL1        0.0265
     22 H           4.7472    3.3221   -0.9828 H       1  UNL1        0.0265
     23 H           4.7472    2.4585   -2.5018 H       1  UNL1        0.0265
     24 H           6.9805    1.5815   -2.0033 H       1  UNL1        0.0266
     25 H           6.9805    2.4451   -0.4843 H       1  UNL1        0.0266
     26 H           6.7738    4.5679   -1.6911 H       1  UNL1        0.0280
     27 H           6.7738    3.7044   -3.2101 H       1  UNL1        0.0280
     28 H           9.0072    2.8274   -2.7115 H       1  UNL1        0.0462
     29 H           9.0072    3.6909   -1.1925 H       1  UNL1        0.0462
     30 H           8.5007    5.5530   -3.2560 H       1  UNL1        0.1487
     31 H          11.0385    3.3261   -1.9900 H       1  UNL1        0.0322
     32 H          12.1886    4.6127   -1.7165 H       1  UNL1        0.0322
     33 H          12.1886    3.7491   -3.2355 H       1  UNL1        0.0322
@<TRIPOS>BOND
     1     1     2    1
     2     2     3    1
     3     3     4    1
     4     4     5    1
     5     5     6    1
     6     6     7    1
     7     7     8    1
     8     8     9    1
     9     9    10   am
    10    10    11    1
    11    10    12    2
    12     1    13    1
    13     1    14    1
    14     1    15    1
    15     2    16    1
    16     2    17    1
    17     3    18    1
    18     3    19    1
    19     4    20    1
    20     4    21    1
    21     5    22    1
    22     5    23    1
    23     6    24    1
    24     6    25    1
    25     7    26    1
    26     7    27    1
    27     8    28    1
    28     8    29    1
    29     9    30    1
    30    11    31    1
    31    11    32    1
    32    11    33    1
