@<TRIPOS>MOLECULE
*****
 16 15 0 0 0
SMALL
GASTEIGER

@<TRIPOS>ATOM
      1 C           0.9086   -0.0064    0.0401 C.3     1  UNL1       -0.0416
      2 C           2.4286   -0.0064    0.0401 C.3     1  UNL1        0.0449
      3 O           2.9020   -1.2488   -0.4588 O.3     1  UNL1       -0.3778
      4 C           4.3220   -1.2488   -0.4588 C.3     1  UNL1        0.0707
      5 C           4.8286   -2.5786   -0.9929 C.3     1  UNL1        0.0676
      6 O           6.2486   -2.5786   -0.9929 O.3     1  UNL1       -0.3927
      7 H           0.5520    0.9297    0.4161 H       1  UNL1        0.0252
      8 H           0.5520   -0.8001    0.6629 H       1  UNL1        0.0252
      9 H           0.5520   -0.1489   -0.9586 H       1  UNL1        0.0252
     10 H           2.7853    0.1360    1.0388 H       1  UNL1        0.0557
     11 H           2.7853    0.7872   -0.5826 H       1  UNL1        0.0557
     12 H           4.6786   -1.1063    0.5399 H       1  UNL1        0.0583
     13 H           4.6786   -0.4551   -1.0815 H       1  UNL1        0.0583
     14 H           4.4720   -2.7211   -1.9916 H       1  UNL1        0.0580
     15 H           4.4720   -3.3723   -0.3702 H       1  UNL1        0.0580
     16 H           6.5719   -1.8591   -1.5574 H       1  UNL1        0.2095
@<TRIPOS>BOND
     1     1     2    1
     2     2     3    1
     3     3     4    1
     4     4     5    1
     5     5     6    1
     6     1     7    1
     7     1     8    1
     8     1     9    1
     9     2    10    1
    10     2    11    1
    11     4    12    1
    12     4    13    1
    13     5    14    1
    14     5    15    1
    15     6    16    1
