@<TRIPOS>MOLECULE
*****
 27 26 0 0 0
SMALL
GASTEIGER

@<TRIPOS>ATOM
      1 C           0.9547    0.0447    0.0771 C.3     1  UNL1       -0.0653
      2 C           2.4747    0.0447    0.0771 C.3     1  UNL1       -0.0559
      3 C           2.9814   -1.3594    0.3640 C.3     1  UNL1       -0.0519
      4 C           4.5014   -1.3594    0.3640 C.3     1  UNL1       -0.0374
      5 C           5.0080   -2.7634    0.6509 C.3     1  UNL1        0.0116
      6 N           6.4780   -2.7634    0.6509 N.am    1  UNL1       -0.3153
      7 C           7.2130   -4.0107    0.9057 C.2     1  UNL1        0.2128
      8 O           6.5776   -5.0891    1.1260 O.2     1  UNL1       -0.2758
      9 C           8.7330   -4.0107    0.9057 C.3     1  UNL1        0.0211
     10 C           9.2397   -5.4148    1.1926 C.3     1  UNL1       -0.0570
     11 H           0.5980    1.0331   -0.1248 H       1  UNL1        0.0230
     12 H           0.5980   -0.2746    1.0341 H       1  UNL1        0.0230
     13 H           0.5980   -0.6244   -0.6779 H       1  UNL1        0.0230
     14 H           2.8314    0.7138    0.8321 H       1  UNL1        0.0263
     15 H           2.8314    0.3640   -0.8798 H       1  UNL1        0.0263
     16 H           2.6247   -2.0284   -0.3910 H       1  UNL1        0.0266
     17 H           2.6247   -1.6787    1.3209 H       1  UNL1        0.0266
     18 H           4.8580   -0.6903    1.1190 H       1  UNL1        0.0280
     19 H           4.8580   -1.0401   -0.5929 H       1  UNL1        0.0280
     20 H           4.6513   -3.4325   -0.1041 H       1  UNL1        0.0462
     21 H           4.6513   -3.0827    1.6078 H       1  UNL1        0.0462
     22 H           6.9703   -1.9281    0.4802 H       1  UNL1        0.1487
     23 H           9.0897   -3.3416    1.6607 H       1  UNL1        0.0356
     24 H           9.0897   -3.6914   -0.0512 H       1  UNL1        0.0356
     25 H           8.8830   -5.7341    2.1495 H       1  UNL1        0.0234
     26 H          10.3097   -5.4148    1.1926 H       1  UNL1        0.0234
     27 H           8.8830   -6.0839    0.4376 H       1  UNL1        0.0234
@<TRIPOS>BOND
     1     1     2    1
     2     2     3    1
     3     3     4    1
     4     4     5    1
     5     5     6    1
     6     6     7   am
     7     7     8    2
     8     7     9    1
     9     9    10    1
    10     1    11    1
    11     1    12    1
    12     1    13    1
    13     2    14    1
    14     2    15    1
    15     3    16    1
    16     3    17    1
    17     4    18    1
    18     4    19    1
    19     5    20    1
    20     5    21    1
    21     6    22    1
    22     9    23    1
    23     9    24    1
    24    10    25    1
    25    10    26    1
    26    10    27    1
