@<TRIPOS>MOLECULE
*****
 39 39 0 0 0
SMALL
GASTEIGER

@<TRIPOS>ATOM
      1 C           1.0401    0.0734    0.0548 C.3     1  UNL1       -0.0653
      2 C           2.5601    0.0734    0.0548 C.3     1  UNL1       -0.0559
      3 C           3.0668    0.5120   -1.3095 C.3     1  UNL1       -0.0533
      4 C           4.5868    0.5120   -1.3095 C.3     1  UNL1       -0.0531
      5 C           5.0934    0.9505   -2.6738 C.3     1  UNL1       -0.0526
      6 C           6.6134    0.9505   -2.6738 C.3     1  UNL1       -0.0448
      7 C           7.1201    1.3891   -4.0381 C.3     1  UNL1        0.0242
      8 C           8.6401    1.3891   -4.0381 C.2     1  UNL1        0.2156
      9 O           9.2755    1.0523   -2.9903 O.2     1  UNL1       -0.2756
     10 N           9.3751    1.7787   -5.2501 N.am    1  UNL1       -0.2991
     11 C          10.8451    1.7787   -5.2501 C.3     1  UNL1        0.0272
     12 C          11.3518    2.2172   -6.6144 C.3     1  UNL1        0.0118
     13 N          12.8218    2.2172   -6.6144 N.3     1  UNL1       -0.3130
     14 C          13.3117    2.6414   -7.9339 C.3     1  UNL1        0.0118
     15 C           8.6401    2.1683   -6.4621 C.3     1  UNL1        0.0272
     16 H           0.6834   -0.2353    1.0152 H       1  UNL1        0.0230
     17 H           0.6834   -0.6040   -0.6928 H       1  UNL1        0.0230
     18 H           0.6834    1.0595   -0.1580 H       1  UNL1        0.0230
     19 H           2.9168   -0.9127    0.2676 H       1  UNL1        0.0263
     20 H           2.9168    0.7508    0.8024 H       1  UNL1        0.0263
     21 H           2.7101    1.4981   -1.5223 H       1  UNL1        0.0265
     22 H           2.7101   -0.1654   -2.0571 H       1  UNL1        0.0265
     23 H           4.9434   -0.4741   -1.0967 H       1  UNL1        0.0265
     24 H           4.9434    1.1893   -0.5619 H       1  UNL1        0.0265
     25 H           4.7368    1.9366   -2.8867 H       1  UNL1        0.0265
     26 H           4.7368    0.2732   -3.4214 H       1  UNL1        0.0265
     27 H           6.9701   -0.0356   -2.4610 H       1  UNL1        0.0270
     28 H           6.9701    1.6279   -1.9263 H       1  UNL1        0.0270
     29 H           6.7634    2.3752   -4.2510 H       1  UNL1        0.0358
     30 H           6.7634    0.7117   -4.7857 H       1  UNL1        0.0358
     31 H          11.2018    0.7926   -5.0373 H       1  UNL1        0.0477
     32 H          11.2018    2.4560   -4.5025 H       1  UNL1        0.0477
     33 H          10.9951    3.2033   -6.8273 H       1  UNL1        0.0439
     34 H          10.9951    1.5399   -7.3620 H       1  UNL1        0.0439
     35 H          13.1618    1.2772   -6.4115 H       1  UNL1        0.1220
     36 H          13.7530    1.9420   -8.6129 H       1  UNL1        0.0439
     37 H          13.9466    3.3988   -8.3439 H       1  UNL1        0.0439
     38 H           8.0628    1.4038   -6.9387 H       1  UNL1        0.0477
     39 H           7.8739    2.9121   -6.5294 H       1  UNL1        0.0477
@<TRIPOS>BOND
     1     1     2    1
     2     2     3    1
     3     3     4    1
     4     4     5    1
     5     5     6    1
     6     6     7    1
     7     7     8    1
     8     8     9    2
     9     8    10   am
    10    10    11    1
    11    11    12    1
    12    12    13    1
    13    13    14    1
    14    14    15    1
    15    10    15    1
    16     1    16    1
    17     1    17    1
    18     1    18    1
    19     2    19    1
    20     2    20    1
    21     3    21    1
    22     3    22    1
    23     4    23    1
    24     4    24    1
    25     5    25    1
    26     5    26    1
    27     6    27    1
    28     6    28    1
    29     7    29    1
    30     7    30    1
    31    11    31    1
    32    11    32    1
    33    12    33    1
    34    12    34    1
    35    13    35    1
    36    14    36    1
    37    14    37    1
    38    15    38    1
    39    15    39    1
