@<TRIPOS>MOLECULE
*****
 31 30 0 0 0
SMALL
GASTEIGER

@<TRIPOS>ATOM
      1 C           0.9213   -0.0081    0.0612 C.3     1  UNL1       -0.0416
      2 C           2.4413   -0.0081    0.0612 C.3     1  UNL1        0.0449
      3 O           2.9147    1.3262    0.1714 O.3     1  UNL1       -0.3778
      4 C           4.3347    1.3262    0.1714 C.3     1  UNL1        0.0710
      5 C           4.8413    2.7544    0.2893 C.3     1  UNL1        0.0711
      6 O           6.2613    2.7544    0.2893 O.3     1  UNL1       -0.3760
      7 C           6.7347    4.0887    0.3994 C.3     1  UNL1        0.0633
      8 C           8.2547    4.0887    0.3994 C.3     1  UNL1        0.0351
      9 N           8.7447    5.4699    0.5134 N.am    1  UNL1       -0.3121
     10 C          10.1899    5.7376    0.5355 C.2     1  UNL1        0.2268
     11 O          11.0158    4.7749    0.4560 O.2     1  UNL1       -0.2744
     12 C          10.6966    7.1658    0.6534 C.3     1  UNL1        0.0707
     13 N          12.1666    7.1658    0.6534 N.3     1  UNL1       -0.3225
     14 H           0.5647   -1.0134   -0.0218 H       1  UNL1        0.0252
     15 H           0.5647    0.5665   -0.7680 H       1  UNL1        0.0252
     16 H           0.5647    0.4228    0.9734 H       1  UNL1        0.0252
     17 H           2.7980   -0.4389   -0.8510 H       1  UNL1        0.0557
     18 H           2.7980   -0.5826    0.8904 H       1  UNL1        0.0557
     19 H           4.6913    0.8954   -0.7408 H       1  UNL1        0.0583
     20 H           4.6913    0.7516    1.0006 H       1  UNL1        0.0583
     21 H           4.4847    3.1852    1.2014 H       1  UNL1        0.0583
     22 H           4.4847    3.3290   -0.5399 H       1  UNL1        0.0583
     23 H           6.3780    4.5195    1.3116 H       1  UNL1        0.0575
     24 H           6.3780    4.6632   -0.4298 H       1  UNL1        0.0575
     25 H           8.6113    3.6578   -0.5128 H       1  UNL1        0.0484
     26 H           8.6113    3.5141    1.2286 H       1  UNL1        0.0484
     27 H           8.1049    6.2157    0.5750 H       1  UNL1        0.1488
     28 H          10.3399    7.5966    1.5656 H       1  UNL1        0.0518
     29 H          10.3399    7.7404   -0.1758 H       1  UNL1        0.0518
     30 H          12.5066    6.6181    1.4439 H       1  UNL1        0.1186
     31 H          12.5066    8.1242    0.7325 H       1  UNL1        0.1186
@<TRIPOS>BOND
     1     1     2    1
     2     2     3    1
     3     3     4    1
     4     4     5    1
     5     5     6    1
     6     6     7    1
     7     7     8    1
     8     8     9    1
     9     9    10   am
    10    10    11    2
    11    10    12    1
    12    12    13    1
    13     1    14    1
    14     1    15    1
    15     1    16    1
    16     2    17    1
    17     2    18    1
    18     4    19    1
    19     4    20    1
    20     5    21    1
    21     5    22    1
    22     7    23    1
    23     7    24    1
    24     8    25    1
    25     8    26    1
    26     9    27    1
    27    12    28    1
    28    12    29    1
    29    13    30    1
    30    13    31    1
