@<TRIPOS>MOLECULE
*****
 37 38 0 0 0
SMALL
GASTEIGER

@<TRIPOS>ATOM
      1 C           1.0851   -0.0412    0.0324 C.3     1  UNL1       -0.0127
      2 N           2.5551   -0.0412    0.0324 N.3     1  UNL1       -0.3029
      3 C           3.0451   -1.1928   -0.7387 C.3     1  UNL1        0.0114
      4 C           4.5651   -1.1928   -0.7387 C.3     1  UNL1        0.0117
      5 N           5.0551   -2.3444   -1.5099 N.3     1  UNL1       -0.2996
      6 C           4.5651   -2.2523   -2.8927 C.3     1  UNL1        0.0019
      7 C           3.0451   -2.2523   -2.8927 C.3     1  UNL1       -0.0260
      8 C           2.5384   -2.1572   -4.3226 C.3     1  UNL1       -0.0364
      9 C           1.0184   -2.1572   -4.3226 C.3     1  UNL1       -0.0038
     10 N           0.5284   -2.0651   -5.7055 N.3     1  UNL1       -0.3160
     11 C          -0.9416   -2.0651   -5.7055 C.3     1  UNL1       -0.0038
     12 C           2.5384   -1.0616   -2.0953 C.3     1  UNL1       -0.0364
     13 C           6.5251   -2.3444   -1.5099 C.3     1  UNL1        0.0117
     14 C           3.0451   -0.1333    1.4153 C.3     1  UNL1        0.0114
     15 H           0.7285    0.0258   -0.9741 H       1  UNL1        0.0391
     16 H           0.7285    0.7970    0.5938 H       1  UNL1        0.0391
     17 H           0.7285   -0.9465    0.4777 H       1  UNL1        0.0391
     18 H           2.6885   -1.1258   -1.7453 H       1  UNL1        0.0439
     19 H           2.6885   -2.0980   -0.2935 H       1  UNL1        0.0439
     20 H           4.9218   -1.2598    0.2679 H       1  UNL1        0.0439
     21 H           4.9218   -0.2876   -1.1840 H       1  UNL1        0.0439
     22 H           4.9218   -3.0906   -3.4541 H       1  UNL1        0.0429
     23 H           4.9218   -1.3471   -3.3380 H       1  UNL1        0.0429
     24 H           2.6884   -3.1576   -2.4475 H       1  UNL1        0.0314
     25 H           2.8951   -2.9954   -4.8839 H       1  UNL1        0.0281
     26 H           2.8951   -1.2519   -4.7679 H       1  UNL1        0.0281
     27 H           0.6618   -1.3189   -3.7613 H       1  UNL1        0.0424
     28 H           0.6618   -3.0624   -3.8774 H       1  UNL1        0.0424
     29 H           0.8684   -2.8642   -6.2406 H       1  UNL1        0.1219
     30 H          -1.5078   -2.9730   -5.7094 H       1  UNL1        0.0424
     31 H          -1.7639   -1.5992   -6.2071 H       1  UNL1        0.0424
     32 H           2.2598   -1.2279   -1.0757 H       1  UNL1        0.0281
     33 H           3.0321   -0.1395   -1.8698 H       1  UNL1        0.0281
     34 H           7.0927   -1.7945   -2.2312 H       1  UNL1        0.0439
     35 H           7.3502   -3.0223   -1.4418 H       1  UNL1        0.0439
     36 H           3.3168    0.7776    1.9066 H       1  UNL1        0.0439
     37 H           2.5486   -0.5219    2.2798 H       1  UNL1        0.0439
@<TRIPOS>BOND
     1     1     2    1
     2     2     3    1
     3     3     4    1
     4     4     5    1
     5     5     6    1
     6     6     7    1
     7     7     8    1
     8     8     9    1
     9     9    10    1
    10    10    11    1
    11    11    12    1
    12     7    12    1
    13     5    13    1
    14    13    14    1
    15     2    14    1
    16     1    15    1
    17     1    16    1
    18     1    17    1
    19     3    18    1
    20     3    19    1
    21     4    20    1
    22     4    21    1
    23     6    22    1
    24     6    23    1
    25     7    24    1
    26     8    25    1
    27     8    26    1
    28     9    27    1
    29     9    28    1
    30    10    29    1
    31    11    30    1
    32    11    31    1
    33    12    32    1
    34    12    33    1
    35    13    34    1
    36    13    35    1
    37    14    36    1
    38    14    37    1
