@<TRIPOS>MOLECULE
*****
 33 32 0 0 0
SMALL
GASTEIGER

@<TRIPOS>ATOM
      1 C           1.0629   -0.0433    0.0645 C.3     1  UNL1       -0.0570
      2 C           2.5829   -0.0433    0.0645 C.3     1  UNL1        0.0211
      3 C           3.0896   -0.9761   -1.0234 C.2     1  UNL1        0.2128
      4 O           2.2637   -1.6048   -1.7568 O.2     1  UNL1       -0.2758
      5 N           4.5349   -1.1509   -1.2274 N.am    1  UNL1       -0.3131
      6 C           5.0248   -2.0530   -2.2795 C.3     1  UNL1        0.0350
      7 C           6.5448   -2.0530   -2.2795 C.3     1  UNL1        0.0632
      8 O           7.0182   -2.9244   -3.2959 O.3     1  UNL1       -0.3760
      9 C           8.4382   -2.9244   -3.2959 C.3     1  UNL1        0.0711
     10 C           8.9448   -3.8571   -4.3839 C.3     1  UNL1        0.0711
     11 O          10.3648   -3.8571   -4.3839 O.3     1  UNL1       -0.3752
     12 C          10.8382   -4.7285   -5.4002 C.3     1  UNL1        0.0708
     13 C          12.3582   -4.7285   -5.4002 C.3     1  UNL1        0.0676
     14 O          12.8315   -5.5999   -6.4166 O.3     1  UNL1       -0.3927
     15 H           0.7063    0.6133    0.8304 H       1  UNL1        0.0234
     16 H           0.7063   -1.0349    0.2502 H       1  UNL1        0.0234
     17 H           0.7063    0.2917   -0.8871 H       1  UNL1        0.0234
     18 H           2.9396   -0.3782    1.0161 H       1  UNL1        0.0356
     19 H           2.9396    0.9483   -0.1212 H       1  UNL1        0.0356
     20 H           5.1746   -0.6638   -0.6593 H       1  UNL1        0.1488
     21 H           4.6682   -1.7180   -3.2311 H       1  UNL1        0.0484
     22 H           4.6682   -3.0445   -2.0938 H       1  UNL1        0.0484
     23 H           6.9015   -2.3879   -1.3280 H       1  UNL1        0.0575
     24 H           6.9015   -1.0614   -2.4652 H       1  UNL1        0.0575
     25 H           8.7948   -3.2593   -2.3443 H       1  UNL1        0.0583
     26 H           8.7948   -1.9328   -3.4816 H       1  UNL1        0.0583
     27 H           8.5882   -3.5222   -5.3354 H       1  UNL1        0.0583
     28 H           8.5882   -4.8487   -4.1982 H       1  UNL1        0.0583
     29 H          10.4815   -4.3936   -6.3518 H       1  UNL1        0.0583
     30 H          10.4815   -5.7201   -5.2145 H       1  UNL1        0.0583
     31 H          12.7148   -5.0635   -4.4487 H       1  UNL1        0.0580
     32 H          12.7148   -3.7370   -5.5860 H       1  UNL1        0.0580
     33 H          12.5082   -6.4988   -6.2483 H       1  UNL1        0.2095
@<TRIPOS>BOND
     1     1     2    1
     2     2     3    1
     3     3     4    2
     4     3     5   am
     5     5     6    1
     6     6     7    1
     7     7     8    1
     8     8     9    1
     9     9    10    1
    10    10    11    1
    11    11    12    1
    12    12    13    1
    13    13    14    1
    14     1    15    1
    15     1    16    1
    16     1    17    1
    17     2    18    1
    18     2    19    1
    19     5    20    1
    20     6    21    1
    21     6    22    1
    22     7    23    1
    23     7    24    1
    24     9    25    1
    25     9    26    1
    26    10    27    1
    27    10    28    1
    28    12    29    1
    29    12    30    1
    30    13    31    1
    31    13    32    1
    32    14    33    1
