@<TRIPOS>MOLECULE
*****
 30 29 0 0 0
SMALL
GASTEIGER

@<TRIPOS>ATOM
      1 N           1.0404   -0.0522   -0.0751 N.3     1  UNL1       -0.3300
      2 C           2.5104   -0.0522   -0.0751 C.3     1  UNL1       -0.0069
      3 C           3.0171   -1.0000    0.9998 C.3     1  UNL1       -0.0406
      4 C           4.5371   -1.0000    0.9998 C.3     1  UNL1       -0.0519
      5 C           5.0438   -1.9478    2.0747 C.3     1  UNL1       -0.0530
      6 C           6.5638   -1.9478    2.0747 C.3     1  UNL1       -0.0530
      7 C           7.0704   -2.8955    3.1496 C.3     1  UNL1       -0.0519
      8 C           8.5904   -2.8955    3.1496 C.3     1  UNL1       -0.0406
      9 C           9.0971   -3.8433    4.2245 C.3     1  UNL1       -0.0069
     10 N          10.5671   -3.8433    4.2245 N.3     1  UNL1       -0.3300
     11 H           0.7004    0.5838   -0.7964 H       1  UNL1        0.1182
     12 H           0.7004    0.2545    0.8363 H       1  UNL1        0.1182
     13 H           2.8671    0.9367    0.1244 H       1  UNL1        0.0422
     14 H           2.8671   -0.3739   -1.0312 H       1  UNL1        0.0422
     15 H           2.6604   -1.9889    0.8003 H       1  UNL1        0.0277
     16 H           2.6604   -0.6783    1.9559 H       1  UNL1        0.0277
     17 H           4.8938   -0.0111    1.1993 H       1  UNL1        0.0266
     18 H           4.8938   -1.3217    0.0436 H       1  UNL1        0.0266
     19 H           4.6871   -2.9366    1.8752 H       1  UNL1        0.0265
     20 H           4.6871   -1.6261    3.0308 H       1  UNL1        0.0265
     21 H           6.9204   -0.9589    2.2741 H       1  UNL1        0.0265
     22 H           6.9204   -2.2695    1.1185 H       1  UNL1        0.0265
     23 H           6.7137   -3.8844    2.9501 H       1  UNL1        0.0266
     24 H           6.7137   -2.5738    4.1057 H       1  UNL1        0.0266
     25 H           8.9471   -1.9066    3.3490 H       1  UNL1        0.0277
     26 H           8.9471   -3.2172    2.1934 H       1  UNL1        0.0277
     27 H           8.7404   -4.8322    4.0250 H       1  UNL1        0.0422
     28 H           8.7404   -3.5216    5.1806 H       1  UNL1        0.0422
     29 H          10.9071   -4.1500    3.3130 H       1  UNL1        0.1182
     30 H          10.9071   -4.4793    4.9458 H       1  UNL1        0.1182
@<TRIPOS>BOND
     1     1     2    1
     2     2     3    1
     3     3     4    1
     4     4     5    1
     5     5     6    1
     6     6     7    1
     7     7     8    1
     8     8     9    1
     9     9    10    1
    10     1    11    1
    11     1    12    1
    12     2    13    1
    13     2    14    1
    14     3    15    1
    15     3    16    1
    16     4    17    1
    17     4    18    1
    18     5    19    1
    19     5    20    1
    20     6    21    1
    21     6    22    1
    22     7    23    1
    23     7    24    1
    24     8    25    1
    25     8    26    1
    26     9    27    1
    27     9    28    1
    28    10    29    1
    29    10    30    1
