@<TRIPOS>MOLECULE
*****
 33 33 0 0 0
SMALL
GASTEIGER

@<TRIPOS>ATOM
      1 N           1.0310    0.0709   -0.0633 N.3     1  UNL1       -0.3300
      2 C           2.5010    0.0709   -0.0633 C.3     1  UNL1       -0.0069
      3 C           3.0077   -0.8428    1.0407 C.3     1  UNL1       -0.0406
      4 C           4.5277   -0.8428    1.0407 C.3     1  UNL1       -0.0508
      5 C           5.0343   -1.7566    2.1446 C.3     1  UNL1       -0.0402
      6 C           6.5543   -1.7566    2.1446 C.3     1  UNL1       -0.0010
      7 N           7.0443   -2.6403    3.2123 N.3     1  UNL1       -0.2999
      8 C           8.5143   -2.6403    3.2123 C.3     1  UNL1        0.0115
      9 C           9.0210   -3.5540    4.3163 C.3     1  UNL1        0.0087
     10 N          10.4910   -3.5540    4.3163 N.3     1  UNL1       -0.3136
     11 C          10.9810   -4.4377    5.3839 C.3     1  UNL1        0.0087
     12 C           6.5543   -4.0067    2.9808 C.3     1  UNL1        0.0115
     13 H           0.6910    0.6841   -0.8041 H       1  UNL1        0.1182
     14 H           0.6910    0.4059    0.8381 H       1  UNL1        0.1182
     15 H           2.8577    1.0655    0.1052 H       1  UNL1        0.0422
     16 H           2.8577   -0.2805   -1.0089 H       1  UNL1        0.0422
     17 H           2.6510   -1.8375    0.8722 H       1  UNL1        0.0277
     18 H           2.6510   -0.4914    1.9863 H       1  UNL1        0.0277
     19 H           4.8844    0.1518    1.2091 H       1  UNL1        0.0266
     20 H           4.8844   -1.1942    0.0950 H       1  UNL1        0.0266
     21 H           4.6777   -2.7512    1.9761 H       1  UNL1        0.0278
     22 H           4.6777   -1.4052    3.0903 H       1  UNL1        0.0278
     23 H           6.9110   -0.7619    2.3131 H       1  UNL1        0.0426
     24 H           6.9110   -2.1080    1.1990 H       1  UNL1        0.0426
     25 H           8.8710   -1.6456    3.3808 H       1  UNL1        0.0439
     26 H           8.8710   -2.9917    2.2667 H       1  UNL1        0.0439
     27 H           8.6643   -4.5487    4.1478 H       1  UNL1        0.0437
     28 H           8.6643   -3.2026    5.2619 H       1  UNL1        0.0437
     29 H          10.8310   -2.6059    4.4769 H       1  UNL1        0.1220
     30 H          11.1178   -4.0933    6.3877 H       1  UNL1        0.0437
     31 H          11.7514   -5.1562    5.5717 H       1  UNL1        0.0437
     32 H           5.6736   -4.3130    3.5056 H       1  UNL1        0.0439
     33 H           6.2397   -4.4618    2.0649 H       1  UNL1        0.0439
@<TRIPOS>BOND
     1     1     2    1
     2     2     3    1
     3     3     4    1
     4     4     5    1
     5     5     6    1
     6     6     7    1
     7     7     8    1
     8     8     9    1
     9     9    10    1
    10    10    11    1
    11    11    12    1
    12     7    12    1
    13     1    13    1
    14     1    14    1
    15     2    15    1
    16     2    16    1
    17     3    17    1
    18     3    18    1
    19     4    19    1
    20     4    20    1
    21     5    21    1
    22     5    22    1
    23     6    23    1
    24     6    24    1
    25     8    25    1
    26     8    26    1
    27     9    27    1
    28     9    28    1
    29    10    29    1
    30    11    30    1
    31    11    31    1
    32    12    32    1
    33    12    33    1
