@<TRIPOS>MOLECULE
*****
 20 19 0 0 0
SMALL
GASTEIGER

@<TRIPOS>ATOM
      1 C           1.0305    0.0859    0.0411 C.3     1  UNL1       -0.0653
      2 C           2.5505    0.0859    0.0411 C.3     1  UNL1       -0.0559
      3 C           3.0571   -0.9211   -0.9785 C.3     1  UNL1       -0.0533
      4 C           4.5771   -0.9211   -0.9785 C.3     1  UNL1       -0.0533
      5 C           5.0838   -1.9280   -1.9982 C.3     1  UNL1       -0.0559
      6 C           6.6038   -1.9280   -1.9982 C.3     1  UNL1       -0.0653
      7 H           0.6738    0.7948    0.7589 H       1  UNL1        0.0230
      8 H           0.6738   -0.8901    0.2961 H       1  UNL1        0.0230
      9 H           0.6738    0.3531   -0.9316 H       1  UNL1        0.0230
     10 H           2.9071   -0.1813    1.0139 H       1  UNL1        0.0263
     11 H           2.9071    1.0620   -0.2139 H       1  UNL1        0.0263
     12 H           2.7005   -0.6539   -1.9513 H       1  UNL1        0.0265
     13 H           2.7005   -1.8971   -0.7235 H       1  UNL1        0.0265
     14 H           4.9338   -1.1883   -0.0057 H       1  UNL1        0.0265
     15 H           4.9338    0.0550   -1.2335 H       1  UNL1        0.0265
     16 H           4.7271   -1.6609   -2.9710 H       1  UNL1        0.0263
     17 H           4.7271   -2.9041   -1.7432 H       1  UNL1        0.0263
     18 H           6.9604   -0.9520   -2.2532 H       1  UNL1        0.0230
     19 H           6.9605   -2.6369   -2.7160 H       1  UNL1        0.0230
     20 H           6.9605   -2.1952   -1.0254 H       1  UNL1        0.0230
@<TRIPOS>BOND
     1     1     2    1
     2     2     3    1
     3     3     4    1
     4     4     5    1
     5     5     6    1
     6     1     7    1
     7     1     8    1
     8     1     9    1
     9     2    10    1
    10     2    11    1
    11     3    12    1
    12     3    13    1
    13     4    14    1
    14     4    15    1
    15     5    16    1
    16     5    17    1
    17     6    18    1
    18     6    19    1
    19     6    20    1
