@<TRIPOS>MOLECULE
*****
 71 73 0 0 0
SMALL
GASTEIGER

@<TRIPOS>ATOM
      1 N           0.9711   -0.0860   -0.0421 N.3     1  UNL1       -0.3300
      2 C           2.4411   -0.0860   -0.0421 C.3     1  UNL1       -0.0069
      3 C           2.9478    0.5210   -1.3403 C.3     1  UNL1       -0.0406
      4 C           4.4678    0.5210   -1.3403 C.3     1  UNL1       -0.0519
      5 C           4.9745    1.1279   -2.6384 C.3     1  UNL1       -0.0530
      6 C           6.4945    1.1279   -2.6384 C.3     1  UNL1       -0.0531
      7 C           7.0011    1.7349   -3.9366 C.3     1  UNL1       -0.0531
      8 C           8.5211    1.7349   -3.9366 C.3     1  UNL1       -0.0531
      9 C           9.0278    2.3419   -5.2348 C.3     1  UNL1       -0.0530
     10 C          10.5478    2.3419   -5.2348 C.3     1  UNL1       -0.0516
     11 C          11.0544    2.9489   -6.5330 C.3     1  UNL1       -0.0374
     12 C          12.5744    2.9489   -6.5330 C.3     1  UNL1        0.0119
     13 N          13.0644    3.5359   -7.7885 N.am    1  UNL1       -0.3113
     14 C          14.5097    3.6496   -8.0318 C.2     1  UNL1        0.2441
     15 O          15.3356    3.2405   -7.1567 O.2     1  UNL1       -0.2702
     16 C          15.0164    4.2566   -9.3300 C.ar    1  UNL1        0.0377
     17 C          16.4323    4.3681   -9.5684 C.ar    1  UNL1       -0.0496
     18 C          16.9124    4.9432  -10.7984 C.ar    1  UNL1       -0.0600
     19 C          18.3283    5.0547  -11.0368 C.ar    1  UNL1       -0.0483
     20 C          18.8084    5.6298  -12.2668 C.ar    1  UNL1        0.0090
     21 S          20.5879    5.7698  -12.5664 S.3     1  UNL1       -0.1188
     22 C          20.8692    6.5272  -14.1862 C.3     1  UNL1        0.0439
     23 C          22.3636    6.6448  -14.4378 C.ar    1  UNL1        0.0934
     24 C          22.8437    7.2199  -15.6678 C.ar    1  UNL1        0.0552
     25 N          24.2131    7.3277  -15.8984 N.ar    1  UNL1       -0.2198
     26 C          25.1683    6.8545  -14.8862 C.ar    1  UNL1        0.0670
     27 C          24.6883    6.2794  -13.6562 C.ar    1  UNL1       -0.0362
     28 C          25.6242    5.8157  -12.6646 C.ar    1  UNL1       -0.0598
     29 C          25.1441    5.2406  -11.4345 C.ar    1  UNL1       -0.0616
     30 C          26.0800    4.7770  -10.4429 C.ar    1  UNL1       -0.0598
     31 C          26.5843    6.9659  -15.1246 C.ar    1  UNL1       -0.0362
     32 N          24.6616    7.8650  -17.0475 N.ar    1  UNL1       -0.0605
     33 N          23.2687    6.1964  -13.4788 N.ar    1  UNL1       -0.1333
     34 C          14.0805    4.7203  -10.3216 C.ar    1  UNL1       -0.0362
     35 H           0.6311   -0.4933    0.8291 H       1  UNL1        0.1182
     36 H           0.6311   -0.6368   -0.8304 H       1  UNL1        0.1182
     37 H           2.7978   -1.0911    0.0448 H       1  UNL1        0.0422
     38 H           2.7978    0.4918    0.7849 H       1  UNL1        0.0422
     39 H           2.5911    1.5260   -1.4271 H       1  UNL1        0.0277
     40 H           2.5911   -0.0568   -2.1672 H       1  UNL1        0.0277
     41 H           4.8245   -0.4841   -1.2534 H       1  UNL1        0.0266
     42 H           4.8245    1.0987   -0.5133 H       1  UNL1        0.0266
     43 H           4.6178    2.1330   -2.7253 H       1  UNL1        0.0265
     44 H           4.6178    0.5502   -3.4654 H       1  UNL1        0.0265
     45 H           6.8511    0.1229   -2.5515 H       1  UNL1        0.0265
     46 H           6.8511    1.7057   -1.8115 H       1  UNL1        0.0265
     47 H           6.6445    2.7400   -4.0235 H       1  UNL1        0.0265
     48 H           6.6445    1.1571   -4.7636 H       1  UNL1        0.0265
     49 H           8.8778    0.7299   -3.8497 H       1  UNL1        0.0265
     50 H           8.8778    2.3127   -3.1097 H       1  UNL1        0.0265
     51 H           8.6711    3.3469   -5.3217 H       1  UNL1        0.0265
     52 H           8.6711    1.7641   -6.0618 H       1  UNL1        0.0265
     53 H          10.9045    1.3368   -5.1479 H       1  UNL1        0.0266
     54 H          10.9045    2.9197   -4.4078 H       1  UNL1        0.0266
     55 H          10.6978    3.9539   -6.6199 H       1  UNL1        0.0280
     56 H          10.6978    2.3711   -7.3599 H       1  UNL1        0.0280
     57 H          12.9311    1.9438   -6.4461 H       1  UNL1        0.0462
     58 H          12.9311    3.5266   -5.7060 H       1  UNL1        0.0462
     59 H          12.4247    3.8528   -8.4663 H       1  UNL1        0.1490
     60 H          17.1029    4.0358   -8.8578 H       1  UNL1        0.0625
     61 H          16.2417    5.2754  -11.5090 H       1  UNL1        0.0618
     62 H          18.9989    4.7224  -10.3262 H       1  UNL1        0.0629
     63 H          20.4264    7.5010  -14.2063 H       1  UNL1        0.0445
     64 H          20.4264    5.9182  -14.9464 H       1  UNL1        0.0445
     65 H          22.1731    7.5521  -16.3784 H       1  UNL1        0.0850
     66 H          23.6736    6.1995  -13.4853 H       1  UNL1        0.0639
     67 H          26.6388    5.8956  -12.8354 H       1  UNL1        0.0618
     68 H          24.1295    5.1607  -11.2637 H       1  UNL1        0.0618
     69 H          26.3899    4.3600   -9.5512 H       1  UNL1        0.0618
     70 H          27.2818    7.2881  -15.8136 H       1  UNL1        0.0639
     71 H          13.0730    4.8150  -10.5243 H       1  UNL1        0.0636
@<TRIPOS>BOND
     1     1     2    1
     2     2     3    1
     3     3     4    1
     4     4     5    1
     5     5     6    1
     6     6     7    1
     7     7     8    1
     8     8     9    1
     9     9    10    1
    10    10    11    1
    11    11    12    1
    12    12    13    1
    13    13    14   am
    14    14    15    2
    15    14    16    1
    16    16    17   ar
    17    17    18   ar
    18    18    19   ar
    19    19    20   ar
    20    20    21    1
    21    21    22    1
    22    22    23    1
    23    23    24   ar
    24    24    25   ar
    25    25    26    1
    26    26    27   ar
    27    27    28   ar
    28    28    29   ar
    29    29    30   ar
    30    30    31   ar
    31    26    31   ar
    32    25    32   ar
    33    32    33   ar
    34    23    33   ar
    35    20    34   ar
    36    16    34   ar
    37     1    35    1
    38     1    36    1
    39     2    37    1
    40     2    38    1
    41     3    39    1
    42     3    40    1
    43     4    41    1
    44     4    42    1
    45     5    43    1
    46     5    44    1
    47     6    45    1
    48     6    46    1
    49     7    47    1
    50     7    48    1
    51     8    49    1
    52     8    50    1
    53     9    51    1
    54     9    52    1
    55    10    53    1
    56    10    54    1
    57    11    55    1
    58    11    56    1
    59    12    57    1
    60    12    58    1
    61    13    59    1
    62    17    60    1
    63    18    61    1
    64    19    62    1
    65    22    63    1
    66    22    64    1
    67    24    65    1
    68    27    66    1
    69    28    67    1
    70    29    68    1
    71    30    69    1
    72    31    70    1
    73    34    71    1
