@<TRIPOS>MOLECULE
*****
 38 38 0 0 0
SMALL
GASTEIGER

@<TRIPOS>ATOM
      1 N           1.0896   -0.0114   -0.0429 N.3     1  UNL1       -0.3300
      2 C           2.5596   -0.0114   -0.0429 C.3     1  UNL1       -0.0069
      3 C           3.0663    1.4158   -0.1728 C.3     1  UNL1       -0.0406
      4 C           4.5863    1.4158   -0.1728 C.3     1  UNL1       -0.0519
      5 C           5.0929    2.8429   -0.3026 C.3     1  UNL1       -0.0514
      6 C           6.6129    2.8429   -0.3026 C.3     1  UNL1       -0.0333
      7 C           7.1196    4.2701   -0.4325 C.3     1  UNL1        0.0432
      8 N           8.5896    4.2701   -0.4325 N.ar    1  UNL1       -0.2515
      9 C           9.2860    5.4714   -0.5418 C.ar    1  UNL1        0.0486
     10 C          10.7262    5.4714   -0.5418 C.ar    1  UNL1        0.0829
     11 C          11.4862    4.1604   -0.4225 C.3     1  UNL1       -0.0051
     12 C          10.4985    3.0099   -0.3178 C.3     1  UNL1       -0.0242
     13 C          11.2585    1.6989   -0.1985 C.3     1  UNL1        0.0446
     14 O          10.3357    0.6241   -0.1007 O.3     1  UNL1       -0.3950
     15 N          11.4226    6.6726   -0.6512 N.ar    1  UNL1       -0.1345
     16 N           9.2623    3.1097   -0.3269 N.ar    1  UNL1       -0.0655
     17 H           0.7496   -0.9691    0.0443 H       1  UNL1        0.1182
     18 H           0.7496    0.3920   -0.9159 H       1  UNL1        0.1182
     19 H           2.9163   -0.5929   -0.8672 H       1  UNL1        0.0422
     20 H           2.9163   -0.4346    0.8729 H       1  UNL1        0.0422
     21 H           2.7096    1.9973    0.6516 H       1  UNL1        0.0277
     22 H           2.7096    1.8389   -1.0885 H       1  UNL1        0.0277
     23 H           4.9429    0.8343   -0.9971 H       1  UNL1        0.0266
     24 H           4.9429    0.9926    0.7430 H       1  UNL1        0.0266
     25 H           4.7363    3.4244    0.5217 H       1  UNL1        0.0266
     26 H           4.7363    3.2661   -1.2184 H       1  UNL1        0.0266
     27 H           6.9696    2.2614   -1.1270 H       1  UNL1        0.0283
     28 H           6.9696    2.4198    0.6131 H       1  UNL1        0.0283
     29 H           6.7629    4.8516    0.3918 H       1  UNL1        0.0509
     30 H           6.7629    4.6933   -1.3483 H       1  UNL1        0.0509
     31 H           8.7700    6.3614   -0.6228 H       1  UNL1        0.0845
     32 H          12.1014    4.1832    0.4526 H       1  UNL1        0.0330
     33 H          12.1014    4.0248   -1.2875 H       1  UNL1        0.0330
     34 H           9.8833    2.9871   -1.1930 H       1  UNL1        0.0291
     35 H           9.8833    3.1455    0.5471 H       1  UNL1        0.0291
     36 H          11.8736    1.7216    0.6767 H       1  UNL1        0.0557
     37 H          11.8736    1.5633   -1.0635 H       1  UNL1        0.0557
     38 H           9.7780    0.7470    0.6834 H       1  UNL1        0.2094
@<TRIPOS>BOND
     1     1     2    1
     2     2     3    1
     3     3     4    1
     4     4     5    1
     5     5     6    1
     6     6     7    1
     7     7     8    1
     8     8     9   ar
     9     9    10   ar
    10    10    11    1
    11    11    12    1
    12    12    13    1
    13    13    14    1
    14    10    15   ar
    15    15    16   ar
    16     8    16   ar
    17     1    17    1
    18     1    18    1
    19     2    19    1
    20     2    20    1
    21     3    21    1
    22     3    22    1
    23     4    23    1
    24     4    24    1
    25     5    25    1
    26     5    26    1
    27     6    27    1
    28     6    28    1
    29     7    29    1
    30     7    30    1
    31     9    31    1
    32    11    32    1
    33    11    33    1
    34    12    34    1
    35    12    35    1
    36    13    36    1
    37    13    37    1
    38    14    38    1
