@<TRIPOS>MOLECULE
*****
 33 33 0 0 0
SMALL
GASTEIGER

@<TRIPOS>ATOM
      1 C           0.9465   -0.0718   -0.0444 C.3     1  UNL1       -0.0191
      2 C           2.4665   -0.0718   -0.0444 C.ar    1  UNL1        0.0798
      3 C           3.1866    0.9206   -0.8000 C.ar    1  UNL1        0.0484
      4 N           4.5794    0.9206   -0.8000 N.ar    1  UNL1       -0.2493
      5 C           5.3144   -0.0924   -0.0288 C.3     1  UNL1        0.0665
      6 C           4.3266   -1.0116    0.6710 C.3     1  UNL1        0.0673
      7 O           5.0366   -1.9900    1.4160 O.3     1  UNL1       -0.3757
      8 C           4.1139   -2.8488    2.0698 C.3     1  UNL1        0.0711
      9 C           4.8739   -3.8962    2.8671 C.3     1  UNL1        0.0711
     10 O           3.9511   -4.7549    3.5209 O.3     1  UNL1       -0.3763
     11 C           4.6611   -5.7334    4.2659 C.3     1  UNL1        0.0600
     12 C           3.6734   -6.6526    4.9657 C.3     1  UNL1        0.0166
     13 N           4.4084   -7.6655    5.7369 N.3     1  UNL1       -0.3279
     14 N           5.2521    1.8477   -1.5058 N.ar    1  UNL1       -0.0654
     15 N           3.1629   -1.0316    0.6862 N.ar    1  UNL1       -0.1348
     16 H           0.5898    0.7308   -0.6555 H       1  UNL1        0.0294
     17 H           0.5898    0.0561    0.9562 H       1  UNL1        0.0294
     18 H           0.5898   -1.0024   -0.4340 H       1  UNL1        0.0294
     19 H           2.6706    1.6317   -1.3413 H       1  UNL1        0.0845
     20 H           5.9295    0.3918    0.7007 H       1  UNL1        0.0532
     21 H           5.9295   -0.6667   -0.6896 H       1  UNL1        0.0532
     22 H           3.7115   -1.4957   -0.0584 H       1  UNL1        0.0578
     23 H           3.7115   -0.4373    1.3318 H       1  UNL1        0.0578
     24 H           3.4987   -3.3329    1.3403 H       1  UNL1        0.0583
     25 H           3.4987   -2.2745    2.7305 H       1  UNL1        0.0583
     26 H           5.4890   -3.4120    3.5966 H       1  UNL1        0.0583
     27 H           5.4890   -4.4705    2.2064 H       1  UNL1        0.0583
     28 H           5.2763   -5.2493    4.9953 H       1  UNL1        0.0572
     29 H           5.2763   -6.3077    3.6051 H       1  UNL1        0.0572
     30 H           3.0582   -7.1367    4.2362 H       1  UNL1        0.0444
     31 H           3.0582   -6.0783    5.6265 H       1  UNL1        0.0444
     32 H           4.9948   -8.2130    5.1069 H       1  UNL1        0.1183
     33 H           3.7455   -8.2824    6.2065 H       1  UNL1        0.1183
@<TRIPOS>BOND
     1     1     2    1
     2     2     3   ar
     3     3     4   ar
     4     4     5    1
     5     5     6    1
     6     6     7    1
     7     7     8    1
     8     8     9    1
     9     9    10    1
    10    10    11    1
    11    11    12    1
    12    12    13    1
    13     4    14   ar
    14    14    15   ar
    15     2    15   ar
    16     1    16    1
    17     1    17    1
    18     1    18    1
    19     3    19    1
    20     5    20    1
    21     5    21    1
    22     6    22    1
    23     6    23    1
    24     8    24    1
    25     8    25    1
    26     9    26    1
    27     9    27    1
    28    11    28    1
    29    11    29    1
    30    12    30    1
    31    12    31    1
    32    13    32    1
    33    13    33    1
