@<TRIPOS>MOLECULE
*****
 33 32 0 0 0
SMALL
GASTEIGER

@<TRIPOS>ATOM
      1 C           0.9331   -0.0604   -0.0432 C.3     1  UNL1       -0.0416
      2 C           2.4531   -0.0604   -0.0432 C.3     1  UNL1        0.0449
      3 O           2.9264   -1.0005   -0.9964 O.3     1  UNL1       -0.3778
      4 C           4.3464   -1.0005   -0.9964 C.3     1  UNL1        0.0710
      5 C           4.8531   -2.0068   -2.0168 C.3     1  UNL1        0.0711
      6 O           6.2731   -2.0068   -2.0168 O.3     1  UNL1       -0.3752
      7 C           6.7464   -2.9469   -2.9700 C.3     1  UNL1        0.0711
      8 C           8.2664   -2.9469   -2.9700 C.3     1  UNL1        0.0711
      9 O           8.7397   -3.8869   -3.9232 O.3     1  UNL1       -0.3752
     10 C          10.1597   -3.8869   -3.9232 C.3     1  UNL1        0.0711
     11 C          10.6664   -4.8932   -4.9435 C.3     1  UNL1        0.0706
     12 O          12.0864   -4.8932   -4.9435 O.3     1  UNL1       -0.3807
     13 C          12.5597   -5.8333   -5.8967 C.3     1  UNL1        0.0365
     14 H           0.5764    0.6480    0.6750 H       1  UNL1        0.0252
     15 H           0.5764   -1.0366    0.2111 H       1  UNL1        0.0252
     16 H           0.5764    0.2074   -1.0158 H       1  UNL1        0.0252
     17 H           2.8097   -0.3283    0.9294 H       1  UNL1        0.0557
     18 H           2.8097    0.9158   -0.2976 H       1  UNL1        0.0557
     19 H           4.7031   -1.2683   -0.0238 H       1  UNL1        0.0583
     20 H           4.7031   -0.0243   -1.2508 H       1  UNL1        0.0583
     21 H           4.4964   -1.7389   -2.9894 H       1  UNL1        0.0583
     22 H           4.4964   -2.9830   -1.7624 H       1  UNL1        0.0583
     23 H           6.3897   -2.6790   -3.9426 H       1  UNL1        0.0583
     24 H           6.3897   -3.9231   -2.7157 H       1  UNL1        0.0583
     25 H           8.6230   -3.2147   -1.9974 H       1  UNL1        0.0583
     26 H           8.6230   -1.9706   -3.2243 H       1  UNL1        0.0583
     27 H          10.5164   -4.1548   -2.9506 H       1  UNL1        0.0583
     28 H          10.5164   -2.9107   -4.1775 H       1  UNL1        0.0583
     29 H          10.3097   -4.6254   -5.9161 H       1  UNL1        0.0582
     30 H          10.3097   -5.8694   -4.6892 H       1  UNL1        0.0582
     31 H          13.6297   -5.8333   -5.8967 H       1  UNL1        0.0524
     32 H          12.2030   -5.5655   -6.8693 H       1  UNL1        0.0524
     33 H          12.2030   -6.8095   -5.6424 H       1  UNL1        0.0524
@<TRIPOS>BOND
     1     1     2    1
     2     2     3    1
     3     3     4    1
     4     4     5    1
     5     5     6    1
     6     6     7    1
     7     7     8    1
     8     8     9    1
     9     9    10    1
    10    10    11    1
    11    11    12    1
    12    12    13    1
    13     1    14    1
    14     1    15    1
    15     1    16    1
    16     2    17    1
    17     2    18    1
    18     4    19    1
    19     4    20    1
    20     5    21    1
    21     5    22    1
    22     7    23    1
    23     7    24    1
    24     8    25    1
    25     8    26    1
    26    10    27    1
    27    10    28    1
    28    11    29    1
    29    11    30    1
    30    13    31    1
    31    13    32    1
    32    13    33    1
