@<TRIPOS>MOLECULE
*****
 19 18 0 0 0
SMALL
GASTEIGER

@<TRIPOS>ATOM
      1 C           0.9481    0.0745    0.0419 C.3     1  UNL1       -0.0653
      2 C           2.4681    0.0745    0.0419 C.3     1  UNL1       -0.0559
      3 C           2.9747    1.4216   -0.4469 C.3     1  UNL1       -0.0529
      4 C           4.4947    1.4216   -0.4469 C.3     1  UNL1       -0.0466
      5 C           5.0014    2.7688   -0.9357 C.3     1  UNL1        0.0028
      6 C           6.5214    2.7688   -0.9357 C.2     1  UNL1        0.1203
      7 O           7.1568    3.8034   -1.3111 O.2     1  UNL1       -0.3010
      8 H           0.5914   -0.8738    0.3860 H       1  UNL1        0.0230
      9 H           0.5914    0.2507   -0.9514 H       1  UNL1        0.0230
     10 H           0.5914    0.8466    0.6911 H       1  UNL1        0.0230
     11 H           2.8247   -0.6977   -0.6073 H       1  UNL1        0.0263
     12 H           2.8247   -0.1017    1.0352 H       1  UNL1        0.0263
     13 H           2.6181    2.1938    0.2023 H       1  UNL1        0.0265
     14 H           2.6181    1.5978   -1.4402 H       1  UNL1        0.0265
     15 H           4.8514    0.6495   -1.0961 H       1  UNL1        0.0269
     16 H           4.8514    1.2455    0.5464 H       1  UNL1        0.0269
     17 H           4.6447    3.5409   -0.2865 H       1  UNL1        0.0339
     18 H           4.6447    2.9449   -1.9290 H       1  UNL1        0.0339
     19 H           7.0374    1.9286   -0.6309 H       1  UNL1        0.1026
@<TRIPOS>BOND
     1     1     2    1
     2     2     3    1
     3     3     4    1
     4     4     5    1
     5     5     6    1
     6     6     7    2
     7     1     8    1
     8     1     9    1
     9     1    10    1
    10     2    11    1
    11     2    12    1
    12     3    13    1
    13     3    14    1
    14     4    15    1
    15     4    16    1
    16     5    17    1
    17     5    18    1
    18     6    19    1
