@<TRIPOS>MOLECULE
*****
 23 23 0 0 0
SMALL
GASTEIGER

@<TRIPOS>ATOM
      1 N           1.0461    0.0249   -0.0852 N.3     1  UNL1       -0.3279
      2 C           2.5161    0.0249   -0.0852 C.3     1  UNL1        0.0166
      3 C           3.0228   -0.1966    1.3307 C.3     1  UNL1        0.0600
      4 O           4.4428   -0.1966    1.3307 O.3     1  UNL1       -0.3767
      5 C           4.9161   -0.4035    2.6534 C.3     1  UNL1        0.0673
      6 C           6.4361   -0.4035    2.6534 C.3     1  UNL1        0.0665
      7 N           6.9261   -0.6177    4.0227 N.ar    1  UNL1       -0.2495
      8 C           8.2955   -0.6570    4.2741 C.ar    1  UNL1        0.0455
      9 C           8.7755   -0.8669    5.6157 C.ar    1  UNL1        0.0693
     10 N          10.1449   -0.9062    5.8671 N.ar    1  UNL1       -0.1380
     11 N           6.0518   -0.7758    5.0330 N.ar    1  UNL1       -0.0657
     12 H           0.7061    0.1736   -1.0353 H       1  UNL1        0.1183
     13 H           0.7061    0.7734    0.5186 H       1  UNL1        0.1183
     14 H           2.8728    0.9661   -0.4485 H       1  UNL1        0.0444
     15 H           2.8728   -0.7602   -0.7185 H       1  UNL1        0.0444
     16 H           2.6661   -1.1377    1.6940 H       1  UNL1        0.0572
     17 H           2.6661    0.5886    1.9641 H       1  UNL1        0.0572
     18 H           4.5594   -1.3446    3.0167 H       1  UNL1        0.0578
     19 H           4.5594    0.3817    3.2868 H       1  UNL1        0.0578
     20 H           6.7928    0.5376    2.2901 H       1  UNL1        0.0532
     21 H           6.7928   -1.1887    2.0200 H       1  UNL1        0.0532
     22 H           8.9661   -0.5358    3.4992 H       1  UNL1        0.0842
     23 H           8.1049   -0.9881    6.3906 H       1  UNL1        0.0864
@<TRIPOS>BOND
     1     1     2    1
     2     2     3    1
     3     3     4    1
     4     4     5    1
     5     5     6    1
     6     6     7    1
     7     7     8   ar
     8     8     9   ar
     9     9    10   ar
    10    10    11   ar
    11     7    11   ar
    12     1    12    1
    13     1    13    1
    14     2    14    1
    15     2    15    1
    16     3    16    1
    17     3    17    1
    18     5    18    1
    19     5    19    1
    20     6    20    1
    21     6    21    1
    22     8    22    1
    23     9    23    1
