@<TRIPOS>MOLECULE
*****
 35 35 0 0 0
SMALL
GASTEIGER

@<TRIPOS>ATOM
      1 C           0.9515    0.0856   -0.0178 C.3     1  UNL1       -0.0416
      2 C           2.4715    0.0856   -0.0178 C.3     1  UNL1        0.0449
      3 O           2.9449    1.0071    0.9534 O.3     1  UNL1       -0.3778
      4 C           4.3649    1.0071    0.9534 C.3     1  UNL1        0.0710
      5 C           4.8715    1.9935    1.9929 C.3     1  UNL1        0.0711
      6 O           6.2915    1.9935    1.9929 O.3     1  UNL1       -0.3742
      7 C           6.7649    2.9150    2.9641 C.3     1  UNL1        0.0818
      8 C           8.2849    2.9150    2.9641 C.3     1  UNL1        0.1128
      9 O           8.7582    3.8365    3.9353 O.3     1  UNL1       -0.4896
     10 C          10.1543    4.0151    4.1235 C.ar    1  UNL1        0.1224
     11 C          10.6343    4.9497    5.1086 C.ar    1  UNL1       -0.0198
     12 C          12.0503    5.1309    5.2995 C.ar    1  UNL1       -0.0566
     13 C          12.5303    6.0655    6.2845 C.ar    1  UNL1       -0.0408
     14 C          13.9463    6.2466    6.4754 C.ar    1  UNL1        0.0280
     15 N          14.4363    7.2006    7.4808 N.pl3   1  UNL1       -0.3579
     16 C          11.0902    3.2617    3.3295 C.ar    1  UNL1        0.0007
     17 H           0.5949   -0.6087   -0.7496 H       1  UNL1        0.0252
     18 H           0.5949    1.0666   -0.2533 H       1  UNL1        0.0252
     19 H           0.5949   -0.2009    0.9494 H       1  UNL1        0.0252
     20 H           2.8282    0.3722   -0.9851 H       1  UNL1        0.0557
     21 H           2.8282   -0.8953    0.2176 H       1  UNL1        0.0557
     22 H           4.7215    1.2937   -0.0139 H       1  UNL1        0.0583
     23 H           4.7215    0.0262    1.1888 H       1  UNL1        0.0583
     24 H           4.5149    1.7069    2.9602 H       1  UNL1        0.0583
     25 H           4.5149    2.9745    1.7575 H       1  UNL1        0.0583
     26 H           6.4082    2.6284    3.9314 H       1  UNL1        0.0594
     27 H           6.4082    3.8960    2.7287 H       1  UNL1        0.0594
     28 H           8.6415    3.2016    1.9969 H       1  UNL1        0.0720
     29 H           8.6415    1.9341    3.1996 H       1  UNL1        0.0720
     30 H           9.9637    5.4896    5.6776 H       1  UNL1        0.0654
     31 H          12.7209    4.5910    4.7304 H       1  UNL1        0.0619
     32 H          11.8597    6.6054    6.8535 H       1  UNL1        0.0636
     33 H          15.4042    7.3244    7.6113 H       1  UNL1        0.1423
     34 H          13.7965    7.7156    8.0236 H       1  UNL1        0.1423
     35 H          11.1546    2.5527    2.5823 H       1  UNL1        0.0672
@<TRIPOS>BOND
     1     1     2    1
     2     2     3    1
     3     3     4    1
     4     4     5    1
     5     5     6    1
     6     6     7    1
     7     7     8    1
     8     8     9    1
     9     9    10    1
    10    10    11   ar
    11    11    12   ar
    12    12    13   ar
    13    13    14   ar
    14    14    15    1
    15    14    16   ar
    16    10    16   ar
    17     1    17    1
    18     1    18    1
    19     1    19    1
    20     2    20    1
    21     2    21    1
    22     4    22    1
    23     4    23    1
    24     5    24    1
    25     5    25    1
    26     7    26    1
    27     7    27    1
    28     8    28    1
    29     8    29    1
    30    11    30    1
    31    12    31    1
    32    13    32    1
    33    15    33    1
    34    15    34    1
    35    16    35    1
