@<TRIPOS>MOLECULE
*****
 17 16 0 0 0
SMALL
GASTEIGER

@<TRIPOS>ATOM
      1 C           1.0278   -0.0952   -0.0127 C.3     1  UNL1       -0.0653
      2 C           2.5478   -0.0952   -0.0127 C.3     1  UNL1       -0.0559
      3 C           3.0544   -1.1147   -1.0199 C.3     1  UNL1       -0.0536
      4 C           4.5744   -1.1147   -1.0199 C.3     1  UNL1       -0.0559
      5 C           5.0811   -2.1342   -2.0270 C.3     1  UNL1       -0.0653
      6 H           0.6711    0.6225    0.6962 H       1  UNL1        0.0230
      7 H           0.6711   -1.0680    0.2543 H       1  UNL1        0.0230
      8 H           0.6711    0.1599   -0.9887 H       1  UNL1        0.0230
      9 H           2.9044   -0.3504    0.9633 H       1  UNL1        0.0263
     10 H           2.9044    0.8776   -0.2798 H       1  UNL1        0.0263
     11 H           2.6978   -0.8596   -1.9959 H       1  UNL1        0.0265
     12 H           2.6978   -2.0875   -0.7528 H       1  UNL1        0.0265
     13 H           4.9311   -1.3699   -0.0439 H       1  UNL1        0.0263
     14 H           4.9311   -0.1419   -1.2869 H       1  UNL1        0.0263
     15 H           4.7244   -3.1070   -1.7599 H       1  UNL1        0.0230
     16 H           6.1511   -2.1342   -2.0270 H       1  UNL1        0.0230
     17 H           4.7244   -1.8791   -3.0030 H       1  UNL1        0.0230
@<TRIPOS>BOND
     1     1     2    1
     2     2     3    1
     3     3     4    1
     4     4     5    1
     5     1     6    1
     6     1     7    1
     7     1     8    1
     8     2     9    1
     9     2    10    1
    10     3    11    1
    11     3    12    1
    12     4    13    1
    13     4    14    1
    14     5    15    1
    15     5    16    1
    16     5    17    1
