@<TRIPOS>MOLECULE
*****
 27 26 0 0 0
SMALL
GASTEIGER

@<TRIPOS>ATOM
      1 N           0.9803    0.0134   -0.0971 N.3     1  UNL1       -0.3300
      2 C           2.4503    0.0134   -0.0971 C.3     1  UNL1       -0.0069
      3 C           2.9570   -0.4841    1.2468 C.3     1  UNL1       -0.0406
      4 C           4.4770   -0.4841    1.2468 C.3     1  UNL1       -0.0519
      5 C           4.9836   -0.9816    2.5908 C.3     1  UNL1       -0.0530
      6 C           6.5036   -0.9816    2.5908 C.3     1  UNL1       -0.0519
      7 C           7.0103   -1.4790    3.9348 C.3     1  UNL1       -0.0406
      8 C           8.5303   -1.4790    3.9348 C.3     1  UNL1       -0.0069
      9 N           9.0203   -1.9601    5.2345 N.3     1  UNL1       -0.3300
     10 H           0.6403    0.3472   -0.9990 H       1  UNL1        0.1182
     11 H           0.6403    0.6275    0.6429 H       1  UNL1        0.1182
     12 H           2.8070    1.0078   -0.2669 H       1  UNL1        0.0422
     13 H           2.8070   -0.6309   -0.8734 H       1  UNL1        0.0422
     14 H           2.6003   -1.4785    1.4166 H       1  UNL1        0.0277
     15 H           2.6003    0.1601    2.0231 H       1  UNL1        0.0277
     16 H           4.8337    0.5103    1.0771 H       1  UNL1        0.0266
     17 H           4.8337   -1.1283    0.4705 H       1  UNL1        0.0266
     18 H           4.6270   -1.9760    2.7606 H       1  UNL1        0.0265
     19 H           4.6270   -0.3373    3.3671 H       1  UNL1        0.0265
     20 H           6.8603    0.0129    2.4210 H       1  UNL1        0.0266
     21 H           6.8603   -1.6258    1.8145 H       1  UNL1        0.0266
     22 H           6.6536   -2.4734    4.1045 H       1  UNL1        0.0277
     23 H           6.6536   -0.8348    4.7111 H       1  UNL1        0.0277
     24 H           8.8870   -0.4846    3.7650 H       1  UNL1        0.0422
     25 H           8.8870   -2.1232    3.1585 H       1  UNL1        0.0422
     26 H           8.6803   -1.3460    5.9745 H       1  UNL1        0.1182
     27 H          10.0403   -1.9601    5.2345 H       1  UNL1        0.1182
@<TRIPOS>BOND
     1     1     2    1
     2     2     3    1
     3     3     4    1
     4     4     5    1
     5     5     6    1
     6     6     7    1
     7     7     8    1
     8     8     9    1
     9     1    10    1
    10     1    11    1
    11     2    12    1
    12     2    13    1
    13     3    14    1
    14     3    15    1
    15     4    16    1
    16     4    17    1
    17     5    18    1
    18     5    19    1
    19     6    20    1
    20     6    21    1
    21     7    22    1
    22     7    23    1
    23     8    24    1
    24     8    25    1
    25     9    26    1
    26     9    27    1
