@<TRIPOS>MOLECULE
*****
 23 23 0 0 0
SMALL
GASTEIGER

@<TRIPOS>ATOM
      1 N           0.9661    0.0820    0.0461 N.am    1  UNL1       -0.3278
      2 C           2.4361    0.0820    0.0461 C.2     1  UNL1        0.2320
      3 O           3.0715    0.4154    1.0950 O.2     1  UNL1       -0.2740
      4 C           3.1961   -0.3169   -1.2083 C.3     1  UNL1        0.1190
      5 N           4.6413   -0.2355   -0.9524 N.ar    1  UNL1       -0.2426
      6 C           5.5464   -0.5563   -1.9612 C.ar    1  UNL1        0.0492
      7 C           6.9624   -0.4765   -1.7104 C.ar    1  UNL1        0.0832
      8 C           7.4690   -0.0423   -0.3447 C.3     1  UNL1       -0.0007
      9 C           6.2868    0.2472    0.5657 C.3     1  UNL1        0.0083
     10 C           6.7934    0.6814    1.9314 C.2     1  UNL1        0.1207
     11 O           5.9676    0.9741    2.8520 O.2     1  UNL1       -0.3010
     12 N           7.8675   -0.7973   -2.7193 N.ar    1  UNL1       -0.1345
     13 N           5.0898    0.1489    0.2565 N.ar    1  UNL1       -0.0650
     14 H           0.4738    0.3403    0.8587 H       1  UNL1        0.1450
     15 H           0.4738   -0.1764   -0.7664 H       1  UNL1        0.1450
     16 H           2.9376    0.3457   -2.0078 H       1  UNL1        0.0605
     17 H           2.9376   -1.3195   -1.4783 H       1  UNL1        0.0605
     18 H           5.2024   -0.8511   -2.8885 H       1  UNL1        0.0845
     19 H           8.0635    0.8412   -0.4492 H       1  UNL1        0.0333
     20 H           8.0635   -0.8239    0.0802 H       1  UNL1        0.0333
     21 H           5.6923   -0.6364    0.6702 H       1  UNL1        0.0342
     22 H           5.6923    1.0288    0.1408 H       1  UNL1        0.0342
     23 H           7.8081    0.7385    2.1112 H       1  UNL1        0.1026
@<TRIPOS>BOND
     1     1     2   am
     2     2     3    2
     3     2     4    1
     4     4     5    1
     5     5     6   ar
     6     6     7   ar
     7     7     8    1
     8     8     9    1
     9     9    10    1
    10    10    11    2
    11     7    12   ar
    12    12    13   ar
    13     5    13   ar
    14     1    14    1
    15     1    15    1
    16     4    16    1
    17     4    17    1
    18     6    18    1
    19     8    19    1
    20     8    20    1
    21     9    21    1
    22     9    22    1
    23    10    23    1
