@<TRIPOS>MOLECULE
*****
 31 31 0 0 0
SMALL
GASTEIGER

@<TRIPOS>ATOM
      1 C           1.0243   -0.0884   -0.0398 C.1     1  UNL1       -0.1169
      2 C           2.3282   -0.0884   -0.0398 C.1     1  UNL1       -0.0773
      3 C           3.8482   -0.0884   -0.0398 C.3     1  UNL1        0.1081
      4 O           4.3215   -0.9739   -1.0439 O.3     1  UNL1       -0.3651
      5 C           5.7415   -0.9739   -1.0439 C.3     1  UNL1        0.0722
      6 C           6.2482   -1.9218   -2.1188 C.3     1  UNL1        0.0711
      7 O           7.6682   -1.9218   -2.1188 O.3     1  UNL1       -0.3757
      8 C           8.1415   -2.8072   -3.1229 C.3     1  UNL1        0.0673
      9 C           9.6615   -2.8072   -3.1229 C.3     1  UNL1        0.0665
     10 N          10.1515   -3.7239   -4.1624 N.ar    1  UNL1       -0.2488
     11 C          11.5209   -3.8922   -4.3533 C.ar    1  UNL1        0.0580
     12 C          12.0009   -4.7903   -5.3717 C.ar    1  UNL1        0.1666
     13 C          11.0132   -5.5545   -6.2383 C.2     1  UNL1        0.2632
     14 N          11.5032   -6.4711   -7.2777 N.am    1  UNL1       -0.3240
     15 O           9.7637   -5.4008   -6.0641 O.2     1  UNL1       -0.2686
     16 N          13.3703   -4.9587   -5.5626 N.ar    1  UNL1       -0.1248
     17 N           9.2772   -4.4003   -4.9294 N.ar    1  UNL1       -0.0649
     18 H           0.0303   -0.0884   -0.0398 H       1  UNL1        0.1229
     19 H           4.2049   -0.4101    0.9163 H       1  UNL1        0.0697
     20 H           4.2049    0.9004   -0.2393 H       1  UNL1        0.0697
     21 H           6.0982   -1.2956   -0.0878 H       1  UNL1        0.0583
     22 H           6.0982    0.0150   -1.2435 H       1  UNL1        0.0583
     23 H           5.8915   -1.6001   -3.0749 H       1  UNL1        0.0583
     24 H           5.8915   -2.9106   -1.9193 H       1  UNL1        0.0583
     25 H           7.7848   -2.4856   -4.0791 H       1  UNL1        0.0578
     26 H           7.7848   -3.7961   -2.9234 H       1  UNL1        0.0578
     27 H          10.0182   -3.1289   -2.1668 H       1  UNL1        0.0532
     28 H          10.0182   -1.8184   -3.3224 H       1  UNL1        0.0532
     29 H          12.1915   -3.3734   -3.7650 H       1  UNL1        0.0850
     30 H          12.4711   -6.5901   -7.4127 H       1  UNL1        0.1453
     31 H          10.8634   -6.9660   -7.8390 H       1  UNL1        0.1453
@<TRIPOS>BOND
     1     1     2    3
     2     2     3    1
     3     3     4    1
     4     4     5    1
     5     5     6    1
     6     6     7    1
     7     7     8    1
     8     8     9    1
     9     9    10    1
    10    10    11   ar
    11    11    12   ar
    12    12    13    1
    13    13    14   am
    14    13    15    2
    15    12    16   ar
    16    16    17   ar
    17    10    17   ar
    18     1    18    1
    19     3    19    1
    20     3    20    1
    21     5    21    1
    22     5    22    1
    23     6    23    1
    24     6    24    1
    25     8    25    1
    26     8    26    1
    27     9    27    1
    28     9    28    1
    29    11    29    1
    30    14    30    1
    31    14    31    1
