@<TRIPOS>MOLECULE
*****
 27 26 0 0 0
SMALL
GASTEIGER

@<TRIPOS>ATOM
      1 C           0.9840    0.0384    0.0909 C.3     1  UNL1        0.0365
      2 O           2.4040    0.0384    0.0909 O.3     1  UNL1       -0.3807
      3 C           2.8773   -0.3908    1.3590 C.3     1  UNL1        0.0706
      4 C           4.3973   -0.3908    1.3590 C.3     1  UNL1        0.0711
      5 O           4.8707   -0.8200    2.6272 O.3     1  UNL1       -0.3752
      6 C           6.2907   -0.8200    2.6272 C.3     1  UNL1        0.0711
      7 C           6.7973   -1.2795    3.9846 C.3     1  UNL1        0.0711
      8 O           8.2173   -1.2795    3.9846 O.3     1  UNL1       -0.3752
      9 C           8.6906   -1.7087    5.2527 C.3     1  UNL1        0.0708
     10 C          10.2106   -1.7087    5.2527 C.3     1  UNL1        0.0676
     11 O          10.6840   -2.1380    6.5208 O.3     1  UNL1       -0.3927
     12 H           0.6273    0.3618   -0.8646 H       1  UNL1        0.0524
     13 H           0.6273    0.7042    0.8488 H       1  UNL1        0.0524
     14 H           0.6273   -0.9508    0.2886 H       1  UNL1        0.0524
     15 H           2.5207   -1.3801    1.5567 H       1  UNL1        0.0582
     16 H           2.5207    0.2750    2.1169 H       1  UNL1        0.0582
     17 H           4.7540    0.5984    1.1614 H       1  UNL1        0.0583
     18 H           4.7540   -1.0566    0.6012 H       1  UNL1        0.0583
     19 H           6.6473    0.1692    2.4295 H       1  UNL1        0.0583
     20 H           6.6473   -1.4859    1.8693 H       1  UNL1        0.0583
     21 H           6.4406   -2.2687    4.1823 H       1  UNL1        0.0583
     22 H           6.4406   -0.6137    4.7425 H       1  UNL1        0.0583
     23 H           8.3340   -2.6980    5.4504 H       1  UNL1        0.0583
     24 H           8.3340   -1.0429    6.0106 H       1  UNL1        0.0583
     25 H          10.5673   -0.7195    5.0550 H       1  UNL1        0.0580
     26 H          10.5673   -2.3745    4.4948 H       1  UNL1        0.0580
     27 H          10.3606   -1.5344    7.2079 H       1  UNL1        0.2095
@<TRIPOS>BOND
     1     1     2    1
     2     2     3    1
     3     3     4    1
     4     4     5    1
     5     5     6    1
     6     6     7    1
     7     7     8    1
     8     8     9    1
     9     9    10    1
    10    10    11    1
    11     1    12    1
    12     1    13    1
    13     1    14    1
    14     3    15    1
    15     3    16    1
    16     4    17    1
    17     4    18    1
    18     6    19    1
    19     6    20    1
    20     7    21    1
    21     7    22    1
    22     9    23    1
    23     9    24    1
    24    10    25    1
    25    10    26    1
    26    11    27    1
