@<TRIPOS>MOLECULE
*****
 29 28 0 0 0
SMALL
GASTEIGER

@<TRIPOS>ATOM
      1 C           1.0272    0.0675   -0.0686 C.3     1  UNL1       -0.0653
      2 C           2.5472    0.0675   -0.0686 C.3     1  UNL1       -0.0559
      3 C           3.0539   -0.6176   -1.3273 C.3     1  UNL1       -0.0533
      4 C           4.5739   -0.6176   -1.3273 C.3     1  UNL1       -0.0517
      5 C           5.0806   -1.3026   -2.5860 C.3     1  UNL1       -0.0374
      6 C           6.6006   -1.3026   -2.5860 C.3     1  UNL1        0.0116
      7 N           7.0905   -1.9652   -3.8033 N.am    1  UNL1       -0.3150
      8 C           8.5358   -2.0936   -4.0392 C.2     1  UNL1        0.2199
      9 O           9.3617   -1.6318   -3.1908 O.2     1  UNL1       -0.2754
     10 C           9.0425   -2.7787   -5.2980 C.3     1  UNL1        0.0793
     11 C          10.5625   -2.7787   -5.2980 C.2     1  UNL1        0.1290
     12 O          11.1979   -3.3048   -6.2647 O.2     1  UNL1       -0.3005
     13 H           0.6706    0.5498    0.8175 H       1  UNL1        0.0230
     14 H           0.6706   -0.9410   -0.0939 H       1  UNL1        0.0230
     15 H           0.6706    0.5937   -0.9292 H       1  UNL1        0.0230
     16 H           2.9039   -0.4587    0.7921 H       1  UNL1        0.0263
     17 H           2.9039    1.0760   -0.0432 H       1  UNL1        0.0263
     18 H           2.6972   -0.0913   -2.1880 H       1  UNL1        0.0265
     19 H           2.6972   -1.6260   -1.3527 H       1  UNL1        0.0265
     20 H           4.9306   -1.1438   -0.4666 H       1  UNL1        0.0266
     21 H           4.9306    0.3909   -1.3019 H       1  UNL1        0.0266
     22 H           4.7239   -0.7764   -3.4467 H       1  UNL1        0.0280
     23 H           4.7239   -2.3111   -2.6114 H       1  UNL1        0.0280
     24 H           6.9572   -1.8289   -1.7253 H       1  UNL1        0.0462
     25 H           6.9572   -0.2941   -2.5606 H       1  UNL1        0.0462
     26 H           6.4508   -2.3229   -4.4606 H       1  UNL1        0.1487
     27 H           8.6858   -2.2524   -6.1586 H       1  UNL1        0.0433
     28 H           8.6858   -3.7871   -5.3233 H       1  UNL1        0.0433
     29 H          11.0785   -2.3514   -4.5130 H       1  UNL1        0.1031
@<TRIPOS>BOND
     1     1     2    1
     2     2     3    1
     3     3     4    1
     4     4     5    1
     5     5     6    1
     6     6     7    1
     7     7     8   am
     8     8     9    2
     9     8    10    1
    10    10    11    1
    11    11    12    2
    12     1    13    1
    13     1    14    1
    14     1    15    1
    15     2    16    1
    16     2    17    1
    17     3    18    1
    18     3    19    1
    19     4    20    1
    20     4    21    1
    21     5    22    1
    22     5    23    1
    23     6    24    1
    24     6    25    1
    25     7    26    1
    26    10    27    1
    27    10    28    1
    28    11    29    1
