@<TRIPOS>MOLECULE
*****
 40 39 0 0 0
SMALL
GASTEIGER

@<TRIPOS>ATOM
      1 C           1.0333    0.0939    0.0084 C.3     1  UNL1       -0.0157
      2 N           2.5033    0.0939    0.0084 N.3     1  UNL1       -0.3168
      3 C           2.9933    1.4604   -0.2230 C.3     1  UNL1        0.0191
      4 C           4.5133    1.4604   -0.2230 C.3     1  UNL1        0.0602
      5 O           4.9866    2.7804   -0.4464 O.3     1  UNL1       -0.3763
      6 C           6.4066    2.7804   -0.4464 C.3     1  UNL1        0.0711
      7 C           6.9133    4.1934   -0.6856 C.3     1  UNL1        0.0711
      8 O           8.3333    4.1934   -0.6856 O.3     1  UNL1       -0.3752
      9 C           8.8066    5.5134   -0.9091 C.3     1  UNL1        0.0711
     10 C          10.3266    5.5134   -0.9091 C.3     1  UNL1        0.0711
     11 O          10.7999    6.8334   -1.1326 O.3     1  UNL1       -0.3752
     12 C          12.2199    6.8334   -1.1326 C.3     1  UNL1        0.0711
     13 C          12.7266    8.2464   -1.3718 C.3     1  UNL1        0.0715
     14 O          14.1466    8.2464   -1.3718 O.3     1  UNL1       -0.3703
     15 C          14.6199    9.5664   -1.5953 C.3     1  UNL1        0.1028
     16 C          16.1399    9.5664   -1.5953 C.2     1  UNL1        0.1458
     17 O          16.7754   10.6516   -1.7790 O.2     1  UNL1       -0.2986
     18 H           0.6766   -0.9007    0.1768 H       1  UNL1        0.0388
     19 H           0.6766    0.4454   -0.9372 H       1  UNL1        0.0388
     20 H           0.6766    0.7371    0.7856 H       1  UNL1        0.0388
     21 H           2.8433   -0.5192   -0.7325 H       1  UNL1        0.1217
     22 H           2.6366    2.1036    0.5542 H       1  UNL1        0.0446
     23 H           2.6366    1.8119   -1.1685 H       1  UNL1        0.0446
     24 H           4.8700    0.8173   -1.0002 H       1  UNL1        0.0572
     25 H           4.8700    1.1089    0.7226 H       1  UNL1        0.0572
     26 H           6.7633    2.1373   -1.2236 H       1  UNL1        0.0583
     27 H           6.7633    2.4289    0.4992 H       1  UNL1        0.0583
     28 H           6.5566    4.8365    0.0916 H       1  UNL1        0.0583
     29 H           6.5566    4.5449   -1.6312 H       1  UNL1        0.0583
     30 H           8.4499    6.1565   -0.1319 H       1  UNL1        0.0583
     31 H           8.4499    5.8649   -1.8547 H       1  UNL1        0.0583
     32 H          10.6833    4.8702   -1.6863 H       1  UNL1        0.0583
     33 H          10.6833    5.1619    0.0365 H       1  UNL1        0.0583
     34 H          12.5766    6.1902   -1.9098 H       1  UNL1        0.0583
     35 H          12.5766    6.4819   -0.1870 H       1  UNL1        0.0583
     36 H          12.3699    8.8895   -0.5946 H       1  UNL1        0.0583
     37 H          12.3699    8.5979   -2.3174 H       1  UNL1        0.0583
     38 H          14.2633   10.2095   -0.8181 H       1  UNL1        0.0636
     39 H          14.2633    9.9179   -2.5409 H       1  UNL1        0.0636
     40 H          16.6559    8.6852   -1.4461 H       1  UNL1        0.1051
@<TRIPOS>BOND
     1     1     2    1
     2     2     3    1
     3     3     4    1
     4     4     5    1
     5     5     6    1
     6     6     7    1
     7     7     8    1
     8     8     9    1
     9     9    10    1
    10    10    11    1
    11    11    12    1
    12    12    13    1
    13    13    14    1
    14    14    15    1
    15    15    16    1
    16    16    17    2
    17     1    18    1
    18     1    19    1
    19     1    20    1
    20     2    21    1
    21     3    22    1
    22     3    23    1
    23     4    24    1
    24     4    25    1
    25     6    26    1
    26     6    27    1
    27     7    28    1
    28     7    29    1
    29     9    30    1
    30     9    31    1
    31    10    32    1
    32    10    33    1
    33    12    34    1
    34    12    35    1
    35    13    36    1
    36    13    37    1
    37    15    38    1
    38    15    39    1
    39    16    40    1
