@<TRIPOS>MOLECULE
*****
 23 22 0 0 0
SMALL
GASTEIGER

@<TRIPOS>ATOM
      1 C           0.9402   -0.0346    0.0723 C.3     1  UNL1       -0.0653
      2 C           2.4602   -0.0346    0.0723 C.3     1  UNL1       -0.0559
      3 C           2.9669    0.2737    1.4718 C.3     1  UNL1       -0.0533
      4 C           4.4869    0.2737    1.4718 C.3     1  UNL1       -0.0531
      5 C           4.9936    0.5820    2.8714 C.3     1  UNL1       -0.0533
      6 C           6.5136    0.5820    2.8714 C.3     1  UNL1       -0.0559
      7 C           7.0202    0.8902    4.2709 C.3     1  UNL1       -0.0653
      8 H           0.5836   -0.2516   -0.9129 H       1  UNL1        0.0230
      9 H           0.5836    0.9271    0.3770 H       1  UNL1        0.0230
     10 H           0.5836   -0.7793    0.7529 H       1  UNL1        0.0230
     11 H           2.8169    0.7101   -0.6082 H       1  UNL1        0.0263
     12 H           2.8169   -0.9963   -0.2323 H       1  UNL1        0.0263
     13 H           2.6102   -0.4710    2.1524 H       1  UNL1        0.0265
     14 H           2.6102    1.2354    1.7765 H       1  UNL1        0.0265
     15 H           4.8436    1.0184    0.7913 H       1  UNL1        0.0265
     16 H           4.8436   -0.6880    1.1672 H       1  UNL1        0.0265
     17 H           4.6369   -0.1627    3.5519 H       1  UNL1        0.0265
     18 H           4.6369    1.5437    3.1760 H       1  UNL1        0.0265
     19 H           6.8702    1.3267    2.1908 H       1  UNL1        0.0263
     20 H           6.8702   -0.3797    2.5667 H       1  UNL1        0.0263
     21 H           6.6635    1.8519    4.5755 H       1  UNL1        0.0230
     22 H           8.0902    0.8902    4.2709 H       1  UNL1        0.0230
     23 H           6.6635    0.1455    4.9514 H       1  UNL1        0.0230
@<TRIPOS>BOND
     1     1     2    1
     2     2     3    1
     3     3     4    1
     4     4     5    1
     5     5     6    1
     6     6     7    1
     7     1     8    1
     8     1     9    1
     9     1    10    1
    10     2    11    1
    11     2    12    1
    12     3    13    1
    13     3    14    1
    14     4    15    1
    15     4    16    1
    16     5    17    1
    17     5    18    1
    18     6    19    1
    19     6    20    1
    20     7    21    1
    21     7    22    1
    22     7    23    1
