@<TRIPOS>MOLECULE
*****
 40 40 0 0 0
SMALL
GASTEIGER

@<TRIPOS>ATOM
      1 C           1.0662   -0.0427   -0.0615 C.3     1  UNL1       -0.0653
      2 C           2.5862   -0.0427   -0.0615 C.3     1  UNL1       -0.0559
      3 C           3.0929    1.1173    0.7799 C.3     1  UNL1       -0.0533
      4 C           4.6129    1.1173    0.7799 C.3     1  UNL1       -0.0531
      5 C           5.1196    2.2773    1.6213 C.3     1  UNL1       -0.0530
      6 C           6.6396    2.2773    1.6213 C.3     1  UNL1       -0.0526
      7 C           7.1462    3.4374    2.4628 C.3     1  UNL1       -0.0448
      8 C           8.6662    3.4374    2.4628 C.3     1  UNL1        0.0243
      9 C           9.1729    4.5974    3.3042 C.2     1  UNL1        0.2172
     10 O           8.3470    5.3794    3.8714 O.2     1  UNL1       -0.2755
     11 N          10.6181    4.8149    3.4619 N.am    1  UNL1       -0.2855
     12 C          11.1081    5.9367    4.2757 C.ar    1  UNL1        0.0334
     13 C          12.5241    6.1498    4.4302 C.ar    1  UNL1       -0.0405
     14 C          13.0041    7.2489    5.2274 C.ar    1  UNL1       -0.0600
     15 C          14.4201    7.4619    5.3820 C.ar    1  UNL1       -0.0616
     16 C          14.9002    8.5611    6.1792 C.ar    1  UNL1       -0.0600
     17 C          10.1722    6.8228    4.9184 C.ar    1  UNL1       -0.0405
     18 H           0.7096   -0.8593   -0.6538 H       1  UNL1        0.0230
     19 H           0.7096    0.8785   -0.4726 H       1  UNL1        0.0230
     20 H           0.7096   -0.1474    0.9418 H       1  UNL1        0.0230
     21 H           2.9429    0.0619   -1.0649 H       1  UNL1        0.0263
     22 H           2.9429   -0.9640    0.3495 H       1  UNL1        0.0263
     23 H           2.7362    1.0126    1.7833 H       1  UNL1        0.0265
     24 H           2.7362    2.0386    0.3689 H       1  UNL1        0.0265
     25 H           4.9696    1.2220   -0.2235 H       1  UNL1        0.0265
     26 H           4.9696    0.1960    1.1910 H       1  UNL1        0.0265
     27 H           4.7629    2.1727    2.6247 H       1  UNL1        0.0265
     28 H           4.7629    3.1986    1.2103 H       1  UNL1        0.0265
     29 H           6.9962    2.3820    0.6180 H       1  UNL1        0.0265
     30 H           6.9962    1.3561    2.0324 H       1  UNL1        0.0265
     31 H           6.7896    3.3327    3.4661 H       1  UNL1        0.0270
     32 H           6.7896    4.3586    2.0517 H       1  UNL1        0.0270
     33 H           9.0229    3.5420    1.4594 H       1  UNL1        0.0358
     34 H           9.0229    2.5161    2.8738 H       1  UNL1        0.0358
     35 H          11.2579    4.2091    3.0226 H       1  UNL1        0.1548
     36 H          13.1947    5.5148    3.9696 H       1  UNL1        0.0636
     37 H          12.3335    7.8839    5.6880 H       1  UNL1        0.0618
     38 H          15.0907    6.8270    4.9214 H       1  UNL1        0.0618
     39 H          15.5977    9.1768    6.6258 H       1  UNL1        0.0618
     40 H           9.1648    7.0040    5.0498 H       1  UNL1        0.0636
@<TRIPOS>BOND
     1     1     2    1
     2     2     3    1
     3     3     4    1
     4     4     5    1
     5     5     6    1
     6     6     7    1
     7     7     8    1
     8     8     9    1
     9     9    10    2
    10     9    11   am
    11    11    12    1
    12    12    13   ar
    13    13    14   ar
    14    14    15   ar
    15    15    16   ar
    16    16    17   ar
    17    12    17   ar
    18     1    18    1
    19     1    19    1
    20     1    20    1
    21     2    21    1
    22     2    22    1
    23     3    23    1
    24     3    24    1
    25     4    25    1
    26     4    26    1
    27     5    27    1
    28     5    28    1
    29     6    29    1
    30     6    30    1
    31     7    31    1
    32     7    32    1
    33     8    33    1
    34     8    34    1
    35    11    35    1
    36    13    36    1
    37    14    37    1
    38    15    38    1
    39    16    39    1
    40    17    40    1
