@<TRIPOS>MOLECULE
*****
 14 13 0 0 0
SMALL
GASTEIGER

@<TRIPOS>ATOM
      1 C           1.0265   -0.0504    0.0822 C.3     1  UNL1       -0.0653
      2 C           2.5465   -0.0504    0.0822 C.3     1  UNL1       -0.0562
      3 C           3.0531    0.8098    1.2284 C.3     1  UNL1       -0.0562
      4 C           4.5731    0.8098    1.2284 C.3     1  UNL1       -0.0653
      5 H           0.6698   -0.6560   -0.7246 H       1  UNL1        0.0230
      6 H           0.6698    0.9511   -0.0388 H       1  UNL1        0.0230
      7 H           0.6698   -0.4464    1.0101 H       1  UNL1        0.0230
      8 H           2.9031    0.3455   -0.8456 H       1  UNL1        0.0263
      9 H           2.9031   -1.0519    0.2032 H       1  UNL1        0.0263
     10 H           2.6965    0.4139    2.1562 H       1  UNL1        0.0263
     11 H           2.6965    1.8114    1.1073 H       1  UNL1        0.0263
     12 H           4.9298   -0.1917    1.3494 H       1  UNL1        0.0230
     13 H           4.9298    1.4154    2.0352 H       1  UNL1        0.0230
     14 H           4.9298    1.2058    0.3005 H       1  UNL1        0.0230
@<TRIPOS>BOND
     1     1     2    1
     2     2     3    1
     3     3     4    1
     4     1     5    1
     5     1     6    1
     6     1     7    1
     7     2     8    1
     8     2     9    1
     9     3    10    1
    10     3    11    1
    11     4    12    1
    12     4    13    1
    13     4    14    1
