@<TRIPOS>MOLECULE
*****
 12 11 0 0 0
SMALL
GASTEIGER

@<TRIPOS>ATOM
      1 C           0.9707    0.0902    0.0317 C.3     1  UNL1       -0.0416
      2 C           2.4907    0.0902    0.0317 C.3     1  UNL1        0.0445
      3 O           2.9640    0.8925   -1.0400 O.3     1  UNL1       -0.3832
      4 C           4.3840    0.8925   -1.0400 C.3     1  UNL1        0.0364
      5 H           0.6140   -0.5144    0.8393 H       1  UNL1        0.0252
      6 H           0.6140   -0.3069   -0.8956 H       1  UNL1        0.0252
      7 H           0.6140    1.0918    0.1516 H       1  UNL1        0.0252
      8 H           2.8474   -0.9115   -0.0881 H       1  UNL1        0.0557
      9 H           2.8474    0.4873    0.9591 H       1  UNL1        0.0557
     10 H           4.7407    1.4971   -1.8475 H       1  UNL1        0.0523
     11 H           4.7407   -0.1091   -1.1598 H       1  UNL1        0.0523
     12 H           4.7407    1.2896   -0.1126 H       1  UNL1        0.0523
@<TRIPOS>BOND
     1     1     2    1
     2     2     3    1
     3     3     4    1
     4     1     5    1
     5     1     6    1
     6     1     7    1
     7     2     8    1
     8     2     9    1
     9     4    10    1
    10     4    11    1
    11     4    12    1
