@<TRIPOS>MOLECULE
*****
 61 61 0 0 0
SMALL
GASTEIGER

@<TRIPOS>ATOM
      1 N           1.0070   -0.0712   -0.0698 N.3     1  UNL1       -0.3279
      2 C           2.4770   -0.0712   -0.0698 C.3     1  UNL1        0.0166
      3 C           2.9837    1.1476   -0.8237 C.3     1  UNL1        0.0600
      4 O           4.4037    1.1476   -0.8237 O.3     1  UNL1       -0.3763
      5 C           4.8770    2.2862   -1.5279 C.3     1  UNL1        0.0711
      6 C           6.3970    2.2862   -1.5279 C.3     1  UNL1        0.0711
      7 O           6.8704    3.4248   -2.2321 O.3     1  UNL1       -0.3752
      8 C           8.2904    3.4248   -2.2321 C.3     1  UNL1        0.0711
      9 C           8.7970    4.6435   -2.9860 C.3     1  UNL1        0.0711
     10 O          10.2170    4.6435   -2.9860 O.3     1  UNL1       -0.3752
     11 C          10.6903    5.7821   -3.6902 C.3     1  UNL1        0.0711
     12 C          12.2103    5.7821   -3.6902 C.3     1  UNL1        0.0711
     13 O          12.6837    6.9207   -4.3944 O.3     1  UNL1       -0.3752
     14 C          14.1037    6.9207   -4.3944 C.3     1  UNL1        0.0711
     15 C          14.6103    8.1395   -5.1483 C.3     1  UNL1        0.0711
     16 O          16.0303    8.1395   -5.1483 O.3     1  UNL1       -0.3757
     17 C          16.5037    9.2781   -5.8525 C.3     1  UNL1        0.0673
     18 C          18.0237    9.2781   -5.8525 C.3     1  UNL1        0.0665
     19 N          18.5137   10.4568   -6.5815 N.ar    1  UNL1       -0.2492
     20 C          19.8830   10.6733   -6.7154 C.ar    1  UNL1        0.0487
     21 C          20.3631   11.8281   -7.4297 C.ar    1  UNL1        0.0829
     22 C          19.3753   12.8106   -8.0374 C.3     1  UNL1       -0.0051
     23 C          17.9569   12.3462   -7.7501 C.3     1  UNL1       -0.0242
     24 C          16.9691   13.3287   -8.3578 C.3     1  UNL1        0.0446
     25 O          15.6439   12.8948   -8.0894 O.3     1  UNL1       -0.3950
     26 N          21.7325   12.0445   -7.5636 N.ar    1  UNL1       -0.1345
     27 N          17.6393   11.3266   -7.1195 N.ar    1  UNL1       -0.0654
     28 H           0.6670   -0.8891    0.4360 H       1  UNL1        0.1183
     29 H           0.6670   -0.1004   -1.0311 H       1  UNL1        0.1183
     30 H           2.8337   -0.9598   -0.5475 H       1  UNL1        0.0444
     31 H           2.8337   -0.0406    0.9385 H       1  UNL1        0.0444
     32 H           2.6270    2.0361   -0.3460 H       1  UNL1        0.0572
     33 H           2.6270    1.1170   -1.8320 H       1  UNL1        0.0572
     34 H           4.5204    3.1747   -1.0502 H       1  UNL1        0.0583
     35 H           4.5204    2.2556   -2.5362 H       1  UNL1        0.0583
     36 H           6.7537    1.3976   -2.0056 H       1  UNL1        0.0583
     37 H           6.7537    2.3167   -0.5196 H       1  UNL1        0.0583
     38 H           8.6470    2.5362   -2.7098 H       1  UNL1        0.0583
     39 H           8.6470    3.4553   -1.2238 H       1  UNL1        0.0583
     40 H           8.4403    5.5321   -2.5083 H       1  UNL1        0.0583
     41 H           8.4403    4.6130   -3.9943 H       1  UNL1        0.0583
     42 H          10.3337    6.6707   -3.2125 H       1  UNL1        0.0583
     43 H          10.3337    5.7516   -4.6985 H       1  UNL1        0.0583
     44 H          12.5670    4.8936   -4.1679 H       1  UNL1        0.0583
     45 H          12.5670    5.8127   -2.6819 H       1  UNL1        0.0583
     46 H          14.4603    6.0322   -4.8721 H       1  UNL1        0.0583
     47 H          14.4603    6.9513   -3.3861 H       1  UNL1        0.0583
     48 H          14.2537    9.0281   -4.6706 H       1  UNL1        0.0583
     49 H          14.2537    8.1090   -6.1566 H       1  UNL1        0.0583
     50 H          16.1470   10.1667   -5.3748 H       1  UNL1        0.0578
     51 H          16.1470    9.2476   -6.8608 H       1  UNL1        0.0578
     52 H          18.3803    8.3896   -6.3302 H       1  UNL1        0.0532
     53 H          18.3803    9.3087   -4.8442 H       1  UNL1        0.0532
     54 H          20.5537   10.0062   -6.3028 H       1  UNL1        0.0845
     55 H          19.5270   12.8604   -9.0954 H       1  UNL1        0.0330
     56 H          19.5270   13.7795   -7.6094 H       1  UNL1        0.0330
     57 H          17.8052   12.2964   -6.6921 H       1  UNL1        0.0291
     58 H          17.8052   11.3773   -8.1781 H       1  UNL1        0.0291
     59 H          17.1207   13.3785   -9.4159 H       1  UNL1        0.0557
     60 H          17.1207   14.2976   -7.9298 H       1  UNL1        0.0557
     61 H          15.5065   12.0165   -8.4774 H       1  UNL1        0.2094
@<TRIPOS>BOND
     1     1     2    1
     2     2     3    1
     3     3     4    1
     4     4     5    1
     5     5     6    1
     6     6     7    1
     7     7     8    1
     8     8     9    1
     9     9    10    1
    10    10    11    1
    11    11    12    1
    12    12    13    1
    13    13    14    1
    14    14    15    1
    15    15    16    1
    16    16    17    1
    17    17    18    1
    18    18    19    1
    19    19    20   ar
    20    20    21   ar
    21    21    22    1
    22    22    23    1
    23    23    24    1
    24    24    25    1
    25    21    26   ar
    26    26    27   ar
    27    19    27   ar
    28     1    28    1
    29     1    29    1
    30     2    30    1
    31     2    31    1
    32     3    32    1
    33     3    33    1
    34     5    34    1
    35     5    35    1
    36     6    36    1
    37     6    37    1
    38     8    38    1
    39     8    39    1
    40     9    40    1
    41     9    41    1
    42    11    42    1
    43    11    43    1
    44    12    44    1
    45    12    45    1
    46    14    46    1
    47    14    47    1
    48    15    48    1
    49    15    49    1
    50    17    50    1
    51    17    51    1
    52    18    52    1
    53    18    53    1
    54    20    54    1
    55    22    55    1
    56    22    56    1
    57    23    57    1
    58    23    58    1
    59    24    59    1
    60    24    60    1
    61    25    61    1
