@<TRIPOS>MOLECULE
*****
 26 25 0 0 0
SMALL
GASTEIGER

@<TRIPOS>ATOM
      1 C           0.9289    0.0462    0.0530 C.3     1  UNL1       -0.0632
      2 C           2.4489    0.0462    0.0530 C.3     1  UNL1       -0.0323
      3 C           2.9556   -0.4621   -1.2869 C.3     1  UNL1        0.0475
      4 O           4.3756   -0.4621   -1.2869 O.3     1  UNL1       -0.3785
      5 C           4.8489   -0.9371   -2.5386 C.3     1  UNL1        0.0603
      6 C           6.3689   -0.9371   -2.5386 C.3     1  UNL1        0.0218
      7 N           6.8589   -1.4287   -3.8344 N.3     1  UNL1       -0.3062
      8 C           6.3689   -0.5523   -4.9080 C.3     1  UNL1       -0.0130
      9 C           8.3289   -1.4287   -3.8344 C.3     1  UNL1       -0.0130
     10 H           0.5723    0.4041    0.9962 H       1  UNL1        0.0230
     11 H           0.5723   -0.9495   -0.1087 H       1  UNL1        0.0230
     12 H           0.5723    0.6841   -0.7285 H       1  UNL1        0.0230
     13 H           2.8056   -0.5917    0.8345 H       1  UNL1        0.0285
     14 H           2.8056    1.0420    0.2147 H       1  UNL1        0.0285
     15 H           2.5989    0.1758   -2.0684 H       1  UNL1        0.0560
     16 H           2.5989   -1.4579   -1.4485 H       1  UNL1        0.0560
     17 H           4.4923   -0.2992   -3.3201 H       1  UNL1        0.0572
     18 H           4.4923   -1.9328   -2.7003 H       1  UNL1        0.0572
     19 H           6.7256   -1.5750   -1.7571 H       1  UNL1        0.0449
     20 H           6.7256    0.0587   -2.3769 H       1  UNL1        0.0449
     21 H           5.2989   -0.5523   -4.9080 H       1  UNL1        0.0391
     22 H           6.7256   -0.9102   -5.8512 H       1  UNL1        0.0391
     23 H           6.7256    0.4434   -4.7464 H       1  UNL1        0.0391
     24 H           8.6856   -2.0666   -3.0528 H       1  UNL1        0.0391
     25 H           8.6856   -0.4329   -3.6727 H       1  UNL1        0.0391
     26 H           8.6856   -1.7866   -4.7776 H       1  UNL1        0.0391
@<TRIPOS>BOND
     1     1     2    1
     2     2     3    1
     3     3     4    1
     4     4     5    1
     5     5     6    1
     6     6     7    1
     7     7     8    1
     8     7     9    1
     9     1    10    1
    10     1    11    1
    11     1    12    1
    12     2    13    1
    13     2    14    1
    14     3    15    1
    15     3    16    1
    16     5    17    1
    17     5    18    1
    18     6    19    1
    19     6    20    1
    20     8    21    1
    21     8    22    1
    22     8    23    1
    23     9    24    1
    24     9    25    1
    25     9    26    1
