@<TRIPOS>MOLECULE
*****
 28 28 0 0 0
SMALL
GASTEIGER

@<TRIPOS>ATOM
      1 C           0.9508    0.0151    0.0857 C.3     1  UNL1       -0.0652
      2 C           2.4708    0.0151    0.0857 C.3     1  UNL1       -0.0548
      3 C           2.9775    0.9462    1.1751 C.3     1  UNL1       -0.0405
      4 C           4.4975    0.9462    1.1751 C.3     1  UNL1       -0.0010
      5 N           4.9874    1.8467    2.2287 N.3     1  UNL1       -0.2999
      6 C           6.4574    1.8467    2.2287 C.3     1  UNL1        0.0115
      7 C           6.9641    2.7777    3.3181 C.3     1  UNL1        0.0087
      8 N           8.4341    2.7777    3.3181 N.3     1  UNL1       -0.3136
      9 C           8.9241    3.6782    4.3717 C.3     1  UNL1        0.0087
     10 C           4.4974    1.3845    3.5353 C.3     1  UNL1        0.0115
     11 H           0.5941   -0.6403   -0.6812 H       1  UNL1        0.0230
     12 H           0.5941    1.0070   -0.0985 H       1  UNL1        0.0230
     13 H           0.5941   -0.3213    1.0368 H       1  UNL1        0.0230
     14 H           2.8275    0.3516   -0.8653 H       1  UNL1        0.0263
     15 H           2.8275   -0.9767    0.2699 H       1  UNL1        0.0263
     16 H           2.6208    0.6098    2.1262 H       1  UNL1        0.0277
     17 H           2.6208    1.9381    0.9910 H       1  UNL1        0.0277
     18 H           4.8541    1.2826    0.2241 H       1  UNL1        0.0426
     19 H           4.8541   -0.0456    1.3593 H       1  UNL1        0.0426
     20 H           6.8141    2.1831    1.2776 H       1  UNL1        0.0439
     21 H           6.8141    0.8548    2.4129 H       1  UNL1        0.0439
     22 H           6.6074    2.4413    4.2691 H       1  UNL1        0.0437
     23 H           6.6074    3.7696    3.1339 H       1  UNL1        0.0437
     24 H           8.7741    3.0985    2.4115 H       1  UNL1        0.1220
     25 H           9.0609    4.7261    4.2043 H       1  UNL1        0.0437
     26 H           9.6945    3.7401    5.1117 H       1  UNL1        0.0437
     27 H           3.6167    1.8490    3.9269 H       1  UNL1        0.0439
     28 H           4.1828    0.4042    3.8267 H       1  UNL1        0.0439
@<TRIPOS>BOND
     1     1     2    1
     2     2     3    1
     3     3     4    1
     4     4     5    1
     5     5     6    1
     6     6     7    1
     7     7     8    1
     8     8     9    1
     9     9    10    1
    10     5    10    1
    11     1    11    1
    12     1    12    1
    13     1    13    1
    14     2    14    1
    15     2    15    1
    16     3    16    1
    17     3    17    1
    18     4    18    1
    19     4    19    1
    20     6    20    1
    21     6    21    1
    22     7    22    1
    23     7    23    1
    24     8    24    1
    25     9    25    1
    26     9    26    1
    27    10    27    1
    28    10    28    1
