@<TRIPOS>MOLECULE
*****
 17 16 0 0 0
SMALL
GASTEIGER

@<TRIPOS>ATOM
      1 C           0.9508   -0.0585   -0.0645 C.3     1  UNL1       -0.0653
      2 C           2.4708   -0.0585   -0.0645 C.3     1  UNL1       -0.0559
      3 C           2.9775   -0.4811   -1.4338 C.3     1  UNL1       -0.0536
      4 C           4.4975   -0.4811   -1.4338 C.3     1  UNL1       -0.0559
      5 C           5.0041   -0.9036   -2.8032 C.3     1  UNL1       -0.0653
      6 H           0.5941    0.2390    0.8995 H       1  UNL1        0.0230
      7 H           0.5941   -1.0420   -0.2888 H       1  UNL1        0.0230
      8 H           0.5941    0.6276   -0.8041 H       1  UNL1        0.0230
      9 H           2.8275   -0.7445    0.6751 H       1  UNL1        0.0263
     10 H           2.8275    0.9251    0.1599 H       1  UNL1        0.0263
     11 H           2.6208    0.2050   -2.1734 H       1  UNL1        0.0265
     12 H           2.6208   -1.4646   -1.6582 H       1  UNL1        0.0265
     13 H           4.8541   -1.1671   -0.6942 H       1  UNL1        0.0263
     14 H           4.8541    0.5025   -1.2095 H       1  UNL1        0.0263
     15 H           4.6475   -1.8872   -3.0275 H       1  UNL1        0.0230
     16 H           6.0741   -0.9037   -2.8032 H       1  UNL1        0.0230
     17 H           4.6475   -0.2176   -3.5428 H       1  UNL1        0.0230
@<TRIPOS>BOND
     1     1     2    1
     2     2     3    1
     3     3     4    1
     4     4     5    1
     5     1     6    1
     6     1     7    1
     7     1     8    1
     8     2     9    1
     9     2    10    1
    10     3    11    1
    11     3    12    1
    12     4    13    1
    13     4    14    1
    14     5    15    1
    15     5    16    1
    16     5    17    1
