@<TRIPOS>MOLECULE
*****
 17 16 0 0 0
SMALL
GASTEIGER

@<TRIPOS>ATOM
      1 C           0.9453    0.0712   -0.0440 C.3     1  UNL1       -0.0653
      2 C           2.4653    0.0712   -0.0440 C.3     1  UNL1       -0.0559
      3 C           2.9720    1.4296    0.4127 C.3     1  UNL1       -0.0536
      4 C           4.4920    1.4296    0.4127 C.3     1  UNL1       -0.0559
      5 C           4.9986    2.7879    0.8695 C.3     1  UNL1       -0.0653
      6 H           0.5887   -0.8850   -0.3655 H       1  UNL1        0.0230
      7 H           0.5887    0.8278   -0.7113 H       1  UNL1        0.0230
      8 H           0.5887    0.2709    0.9449 H       1  UNL1        0.0230
      9 H           2.8220   -0.1284   -1.0328 H       1  UNL1        0.0263
     10 H           2.8220   -0.6853    0.6234 H       1  UNL1        0.0263
     11 H           2.6153    1.6293    1.4016 H       1  UNL1        0.0265
     12 H           2.6153    2.1861   -0.2546 H       1  UNL1        0.0265
     13 H           4.8486    1.2299   -0.5761 H       1  UNL1        0.0263
     14 H           4.8487    0.6731    1.0801 H       1  UNL1        0.0263
     15 H           4.6420    3.5445    0.2021 H       1  UNL1        0.0230
     16 H           6.0686    2.7879    0.8695 H       1  UNL1        0.0230
     17 H           4.6420    2.9876    1.8583 H       1  UNL1        0.0230
@<TRIPOS>BOND
     1     1     2    1
     2     2     3    1
     3     3     4    1
     4     4     5    1
     5     1     6    1
     6     1     7    1
     7     1     8    1
     8     2     9    1
     9     2    10    1
    10     3    11    1
    11     3    12    1
    12     4    13    1
    13     4    14    1
    14     5    15    1
    15     5    16    1
    16     5    17    1
