@<TRIPOS>MOLECULE
*****
 19 19 0 0 0
SMALL
GASTEIGER

@<TRIPOS>ATOM
      1 N           1.0330   -0.0893    0.0305 N.3     1  UNL1       -0.3272
      2 C           2.5030   -0.0893    0.0305 C.3     1  UNL1        0.0071
      3 C           3.0097    1.3277    0.2440 C.3     1  UNL1       -0.0251
      4 C           4.5297    1.3277    0.2440 C.3     1  UNL1       -0.0027
      5 N           5.0197    2.6982    0.4505 N.3     1  UNL1       -0.3159
      6 C           6.4897    2.6982    0.4505 C.3     1  UNL1       -0.0027
      7 C           3.0097   -0.6130   -1.3035 C.3     1  UNL1       -0.0251
      8 H           0.6930    0.2620    0.9256 H       1  UNL1        0.1185
      9 H           0.6930   -1.0403   -0.1128 H       1  UNL1        0.1185
     10 H           2.8597   -0.7183    0.8192 H       1  UNL1        0.0459
     11 H           2.6530    1.6963    1.1830 H       1  UNL1        0.0292
     12 H           2.6530    1.9567   -0.5448 H       1  UNL1        0.0292
     13 H           4.8864    0.9591   -0.6951 H       1  UNL1        0.0424
     14 H           4.8864    0.6988    1.0327 H       1  UNL1        0.0424
     15 H           4.6797    3.0496    1.3457 H       1  UNL1        0.1219
     16 H           7.0560    2.5074    1.3381 H       1  UNL1        0.0424
     17 H           7.3120    3.2880    0.1030 H       1  UNL1        0.0424
     18 H           3.2884   -1.6445   -1.3597 H       1  UNL1        0.0292
     19 H           2.5160   -0.6356   -2.2526 H       1  UNL1        0.0292
@<TRIPOS>BOND
     1     1     2    1
     2     2     3    1
     3     3     4    1
     4     4     5    1
     5     5     6    1
     6     6     7    1
     7     2     7    1
     8     1     8    1
     9     1     9    1
    10     2    10    1
    11     3    11    1
    12     3    12    1
    13     4    13    1
    14     4    14    1
    15     5    15    1
    16     6    16    1
    17     6    17    1
    18     7    18    1
    19     7    19    1
