@<TRIPOS>MOLECULE
*****
 48 48 0 0 0
SMALL
GASTEIGER

@<TRIPOS>ATOM
      1 C           0.9645    0.0687    0.0633 C.3     1  UNL1       -0.0416
      2 C           2.4845    0.0687    0.0633 C.3     1  UNL1        0.0449
      3 O           2.9578    0.5222    1.3230 O.3     1  UNL1       -0.3778
      4 C           4.3778    0.5222    1.3230 C.3     1  UNL1        0.0710
      5 C           4.8845    1.0076    2.6714 C.3     1  UNL1        0.0711
      6 O           6.3045    1.0076    2.6714 O.3     1  UNL1       -0.3752
      7 C           6.7778    1.4611    3.9310 C.3     1  UNL1        0.0711
      8 C           8.2978    1.4611    3.9310 C.3     1  UNL1        0.0711
      9 O           8.7711    1.9146    5.1907 O.3     1  UNL1       -0.3757
     10 C          10.1911    1.9146    5.1907 C.3     1  UNL1        0.0673
     11 C          10.6978    2.4000    6.5390 C.3     1  UNL1        0.0665
     12 N          12.1678    2.4000    6.5390 N.ar    1  UNL1       -0.2492
     13 C          12.8642    2.8085    7.6739 C.ar    1  UNL1        0.0487
     14 C          14.3044    2.8085    7.6739 C.ar    1  UNL1        0.0829
     15 C          15.0644    2.3627    6.4354 C.3     1  UNL1       -0.0067
     16 C          14.0766    1.9713    5.3484 C.3     1  UNL1       -0.0393
     17 C          14.8366    1.5255    4.1098 C.3     1  UNL1        0.0241
     18 C          13.8489    1.1341    3.0228 C.2     1  UNL1        0.2105
     19 N          12.4036    1.2251    3.2755 N.am    1  UNL1       -0.3293
     20 O          14.2725    0.7283    1.8954 O.2     1  UNL1       -0.2760
     21 N          15.0008    3.2171    8.8089 N.ar    1  UNL1       -0.1345
     22 N          12.8405    2.0053    5.4427 N.ar    1  UNL1       -0.0654
     23 H           0.6078   -0.2730   -0.8858 H       1  UNL1        0.0252
     24 H           0.6078    1.0616    0.2420 H       1  UNL1        0.0252
     25 H           0.6078   -0.5824    0.8339 H       1  UNL1        0.0252
     26 H           2.8411    0.7199   -0.7072 H       1  UNL1        0.0557
     27 H           2.8411   -0.9241   -0.1153 H       1  UNL1        0.0557
     28 H           4.7345    1.1734    0.5525 H       1  UNL1        0.0583
     29 H           4.7345   -0.4706    1.1443 H       1  UNL1        0.0583
     30 H           4.5278    0.3565    3.4419 H       1  UNL1        0.0583
     31 H           4.5278    2.0005    2.8500 H       1  UNL1        0.0583
     32 H           6.4211    0.8099    4.7015 H       1  UNL1        0.0583
     33 H           6.4211    2.4539    4.1097 H       1  UNL1        0.0583
     34 H           8.6545    2.1122    3.1605 H       1  UNL1        0.0583
     35 H           8.6545    0.4682    3.7523 H       1  UNL1        0.0583
     36 H          10.5478    2.5657    4.4202 H       1  UNL1        0.0578
     37 H          10.5478    0.9217    5.0120 H       1  UNL1        0.0578
     38 H          10.3411    1.7488    7.3095 H       1  UNL1        0.0532
     39 H          10.3411    3.3928    6.7177 H       1  UNL1        0.0532
     40 H          12.3482    3.1113    8.5148 H       1  UNL1        0.0845
     41 H          15.6795    1.5215    6.6780 H       1  UNL1        0.0329
     42 H          15.6795    3.1655    6.0861 H       1  UNL1        0.0329
     43 H          13.4615    2.8125    5.1058 H       1  UNL1        0.0273
     44 H          13.4615    1.1685    5.6976 H       1  UNL1        0.0273
     45 H          15.4518    0.6843    4.3524 H       1  UNL1        0.0358
     46 H          15.4518    2.3283    3.7606 H       1  UNL1        0.0358
     47 H          12.0755    1.5395    4.1489 H       1  UNL1        0.1449
     48 H          11.7639    0.9717    2.5715 H       1  UNL1        0.1449
@<TRIPOS>BOND
     1     1     2    1
     2     2     3    1
     3     3     4    1
     4     4     5    1
     5     5     6    1
     6     6     7    1
     7     7     8    1
     8     8     9    1
     9     9    10    1
    10    10    11    1
    11    11    12    1
    12    12    13   ar
    13    13    14   ar
    14    14    15    1
    15    15    16    1
    16    16    17    1
    17    17    18    1
    18    18    19   am
    19    18    20    2
    20    14    21   ar
    21    21    22   ar
    22    12    22   ar
    23     1    23    1
    24     1    24    1
    25     1    25    1
    26     2    26    1
    27     2    27    1
    28     4    28    1
    29     4    29    1
    30     5    30    1
    31     5    31    1
    32     7    32    1
    33     7    33    1
    34     8    34    1
    35     8    35    1
    36    10    36    1
    37    10    37    1
    38    11    38    1
    39    11    39    1
    40    13    40    1
    41    15    41    1
    42    15    42    1
    43    16    43    1
    44    16    44    1
    45    17    45    1
    46    17    46    1
    47    19    47    1
    48    19    48    1
