@<TRIPOS>MOLECULE
*****
 53 53 0 0 0
SMALL
GASTEIGER

@<TRIPOS>ATOM
      1 N           1.0678    0.0454    0.0578 N.3     1  UNL1       -0.3300
      2 C           2.5378    0.0454    0.0578 C.3     1  UNL1       -0.0069
      3 C           3.0445   -0.8166   -1.0870 C.3     1  UNL1       -0.0406
      4 C           4.5645   -0.8166   -1.0870 C.3     1  UNL1       -0.0519
      5 C           5.0711   -1.6786   -2.2318 C.3     1  UNL1       -0.0530
      6 C           6.5911   -1.6786   -2.2318 C.3     1  UNL1       -0.0514
      7 C           7.0978   -2.5407   -3.3767 C.3     1  UNL1       -0.0333
      8 C           8.6178   -2.5407   -3.3767 C.3     1  UNL1        0.0432
      9 N           9.1078   -3.3744   -4.4838 N.ar    1  UNL1       -0.2515
     10 C          10.4772   -3.5275   -4.6871 C.ar    1  UNL1        0.0486
     11 C          10.9572   -4.3442   -5.7718 C.ar    1  UNL1        0.0828
     12 C           9.9695   -5.0392   -6.6948 C.3     1  UNL1       -0.0071
     13 C           8.5510   -4.7107   -6.2585 C.3     1  UNL1       -0.0475
     14 C           7.5632   -5.4056   -7.1814 C.3     1  UNL1       -0.0527
     15 C           6.1448   -5.0771   -6.7451 C.3     1  UNL1       -0.0530
     16 C           5.1570   -5.7721   -7.6680 C.3     1  UNL1       -0.0510
     17 C           3.7385   -5.4435   -7.2317 C.3     1  UNL1       -0.0297
     18 C           2.7508   -6.1385   -8.1546 C.3     1  UNL1        0.0442
     19 O           1.4256   -5.8316   -7.7470 O.3     1  UNL1       -0.3950
     20 N          12.3266   -4.4973   -5.9751 N.ar    1  UNL1       -0.1345
     21 N           8.2335   -3.9895   -5.3007 N.ar    1  UNL1       -0.0655
     22 H           0.7278    0.6239    0.8260 H       1  UNL1        0.1182
     23 H           0.7278   -0.9091    0.1746 H       1  UNL1        0.1182
     24 H           2.8945   -0.3491    0.9862 H       1  UNL1        0.0422
     25 H           2.8945    1.0468   -0.0648 H       1  UNL1        0.0422
     26 H           2.6878   -0.4221   -2.0155 H       1  UNL1        0.0277
     27 H           2.6878   -1.8179   -0.9644 H       1  UNL1        0.0277
     28 H           4.9211   -1.2111   -0.1586 H       1  UNL1        0.0266
     29 H           4.9211    0.1847   -1.2096 H       1  UNL1        0.0266
     30 H           4.7145   -1.2841   -3.1603 H       1  UNL1        0.0265
     31 H           4.7145   -2.6800   -2.1093 H       1  UNL1        0.0265
     32 H           6.9478   -2.0731   -1.3034 H       1  UNL1        0.0266
     33 H           6.9478   -0.6773   -2.3544 H       1  UNL1        0.0266
     34 H           6.7411   -2.1462   -4.3051 H       1  UNL1        0.0283
     35 H           6.7411   -3.5420   -3.2541 H       1  UNL1        0.0283
     36 H           8.9745   -2.9352   -2.4482 H       1  UNL1        0.0509
     37 H           8.9745   -1.5394   -3.4992 H       1  UNL1        0.0509
     38 H          11.1478   -3.0556   -4.0605 H       1  UNL1        0.0845
     39 H          10.1211   -6.0974   -6.6476 H       1  UNL1        0.0329
     40 H          10.1211   -4.7015   -7.6987 H       1  UNL1        0.0329
     41 H           8.3994   -3.6525   -6.3056 H       1  UNL1        0.0269
     42 H           8.3994   -5.0483   -5.2545 H       1  UNL1        0.0269
     43 H           7.7149   -6.4638   -7.1343 H       1  UNL1        0.0265
     44 H           7.7149   -5.0680   -8.1853 H       1  UNL1        0.0265
     45 H           5.9931   -4.0189   -6.7922 H       1  UNL1        0.0265
     46 H           5.9931   -5.4148   -5.7411 H       1  UNL1        0.0265
     47 H           5.3086   -6.8302   -7.6209 H       1  UNL1        0.0266
     48 H           5.3086   -5.4344   -8.6719 H       1  UNL1        0.0266
     49 H           3.5869   -4.3854   -7.2788 H       1  UNL1        0.0287
     50 H           3.5869   -5.7812   -6.2278 H       1  UNL1        0.0287
     51 H           2.9024   -7.1966   -8.1075 H       1  UNL1        0.0557
     52 H           2.9024   -5.8008   -9.1586 H       1  UNL1        0.0557
     53 H           1.2882   -6.1377   -6.8369 H       1  UNL1        0.2094
@<TRIPOS>BOND
     1     1     2    1
     2     2     3    1
     3     3     4    1
     4     4     5    1
     5     5     6    1
     6     6     7    1
     7     7     8    1
     8     8     9    1
     9     9    10   ar
    10    10    11   ar
    11    11    12    1
    12    12    13    1
    13    13    14    1
    14    14    15    1
    15    15    16    1
    16    16    17    1
    17    17    18    1
    18    18    19    1
    19    11    20   ar
    20    20    21   ar
    21     9    21   ar
    22     1    22    1
    23     1    23    1
    24     2    24    1
    25     2    25    1
    26     3    26    1
    27     3    27    1
    28     4    28    1
    29     4    29    1
    30     5    30    1
    31     5    31    1
    32     6    32    1
    33     6    33    1
    34     7    34    1
    35     7    35    1
    36     8    36    1
    37     8    37    1
    38    10    38    1
    39    12    39    1
    40    12    40    1
    41    13    41    1
    42    13    42    1
    43    14    43    1
    44    14    44    1
    45    15    45    1
    46    15    46    1
    47    16    47    1
    48    16    48    1
    49    17    49    1
    50    17    50    1
    51    18    51    1
    52    18    52    1
    53    19    53    1
