@<TRIPOS>MOLECULE
*****
 37 36 0 0 0
SMALL
GASTEIGER

@<TRIPOS>ATOM
      1 C           0.9766    0.0669    0.0706 C.3     1  UNL1        0.0121
      2 C           2.4966    0.0669    0.0706 C.2     1  UNL1        0.2100
      3 O           3.1321   -0.7144   -0.7047 O.2     1  UNL1       -0.2761
      4 N           3.2316    0.9705    0.9673 N.am    1  UNL1       -0.3133
      5 C           4.7016    0.9705    0.9673 C.3     1  UNL1        0.0350
      6 C           5.2083    1.9877    1.9767 C.3     1  UNL1        0.0632
      7 O           6.6283    1.9877    1.9767 O.3     1  UNL1       -0.3760
      8 C           7.1016    2.9380    2.9198 C.3     1  UNL1        0.0711
      9 C           8.6216    2.9380    2.9198 C.3     1  UNL1        0.0711
     10 O           9.0949    3.8883    3.8628 O.3     1  UNL1       -0.3752
     11 C          10.5149    3.8883    3.8628 C.3     1  UNL1        0.0711
     12 C          11.0216    4.9056    4.8722 C.3     1  UNL1        0.0711
     13 O          12.4416    4.9056    4.8722 O.3     1  UNL1       -0.3752
     14 C          12.9149    5.8559    5.8152 C.3     1  UNL1        0.0708
     15 C          14.4349    5.8559    5.8152 C.3     1  UNL1        0.0676
     16 O          14.9082    6.8062    6.7582 O.3     1  UNL1       -0.3927
     17 H           0.6199   -0.6492   -0.6400 H       1  UNL1        0.0322
     18 H           0.6199    1.0403   -0.1943 H       1  UNL1        0.0322
     19 H           0.6199   -0.1905    1.0460 H       1  UNL1        0.0322
     20 H           2.7394    1.5757    1.5679 H       1  UNL1        0.1488
     21 H           5.0583    1.2278   -0.0081 H       1  UNL1        0.0484
     22 H           5.0583   -0.0029    1.2322 H       1  UNL1        0.0484
     23 H           4.8516    1.7304    2.9522 H       1  UNL1        0.0575
     24 H           4.8516    2.9611    1.7119 H       1  UNL1        0.0575
     25 H           6.7449    2.6807    3.8952 H       1  UNL1        0.0583
     26 H           6.7449    3.9114    2.6549 H       1  UNL1        0.0583
     27 H           8.9783    3.1954    1.9443 H       1  UNL1        0.0583
     28 H           8.9783    1.9646    3.1846 H       1  UNL1        0.0583
     29 H          10.8716    4.1457    2.8873 H       1  UNL1        0.0583
     30 H          10.8716    2.9149    4.1276 H       1  UNL1        0.0583
     31 H          10.6649    4.6482    5.8476 H       1  UNL1        0.0583
     32 H          10.6649    5.8790    4.6074 H       1  UNL1        0.0583
     33 H          12.5582    5.5985    6.7906 H       1  UNL1        0.0583
     34 H          12.5582    6.8293    5.5504 H       1  UNL1        0.0583
     35 H          14.7916    6.1132    4.8398 H       1  UNL1        0.0580
     36 H          14.7916    4.8824    6.0801 H       1  UNL1        0.0580
     37 H          14.5849    7.6886    6.5181 H       1  UNL1        0.2095
@<TRIPOS>BOND
     1     1     2    1
     2     2     3    2
     3     2     4   am
     4     4     5    1
     5     5     6    1
     6     6     7    1
     7     7     8    1
     8     8     9    1
     9     9    10    1
    10    10    11    1
    11    11    12    1
    12    12    13    1
    13    13    14    1
    14    14    15    1
    15    15    16    1
    16     1    17    1
    17     1    18    1
    18     1    19    1
    19     4    20    1
    20     5    21    1
    21     5    22    1
    22     6    23    1
    23     6    24    1
    24     8    25    1
    25     8    26    1
    26     9    27    1
    27     9    28    1
    28    11    29    1
    29    11    30    1
    30    12    31    1
    31    12    32    1
    32    14    33    1
    33    14    34    1
    34    15    35    1
    35    15    36    1
    36    16    37    1
