@<TRIPOS>MOLECULE
*****
 19 18 0 0 0
SMALL
GASTEIGER

@<TRIPOS>ATOM
      1 C           0.9674    0.0381   -0.0865 C.1     1  UNL1       -0.1192
      2 C           2.2713    0.0381   -0.0865 C.1     1  UNL1       -0.1056
      3 C           3.7913    0.0381   -0.0865 C.3     1  UNL1        0.0089
      4 C           4.2979   -0.9583    0.9435 C.3     1  UNL1       -0.0422
      5 C           5.8179   -0.9583    0.9435 C.3     1  UNL1       -0.0525
      6 C           6.3246   -1.9547    1.9735 C.3     1  UNL1       -0.0559
      7 C           7.8446   -1.9547    1.9735 C.3     1  UNL1       -0.0653
      8 H          -0.0266    0.0381   -0.0865 H       1  UNL1        0.1228
      9 H           4.1479    1.0167    0.1584 H       1  UNL1        0.0397
     10 H           4.1479   -0.2391   -1.0565 H       1  UNL1        0.0397
     11 H           3.9413   -1.9369    0.6986 H       1  UNL1        0.0274
     12 H           3.9413   -0.6811    1.9134 H       1  UNL1        0.0274
     13 H           6.1746    0.0203    1.1884 H       1  UNL1        0.0265
     14 H           6.1746   -1.2355   -0.0265 H       1  UNL1        0.0265
     15 H           5.9679   -2.9333    1.7286 H       1  UNL1        0.0263
     16 H           5.9679   -1.6775    2.9434 H       1  UNL1        0.0263
     17 H           8.2013   -2.2319    1.0035 H       1  UNL1        0.0230
     18 H           8.2013   -2.6561    2.6985 H       1  UNL1        0.0230
     19 H           8.2013   -0.9761    2.2184 H       1  UNL1        0.0230
@<TRIPOS>BOND
     1     1     2    3
     2     2     3    1
     3     3     4    1
     4     4     5    1
     5     5     6    1
     6     6     7    1
     7     1     8    1
     8     3     9    1
     9     3    10    1
    10     4    11    1
    11     4    12    1
    12     5    13    1
    13     5    14    1
    14     6    15    1
    15     6    16    1
    16     7    17    1
    17     7    18    1
    18     7    19    1
