@<TRIPOS>MOLECULE
*****
 51 51 0 0 0
SMALL
GASTEIGER

@<TRIPOS>ATOM
      1 C           0.9364    0.0343    0.0691 C.3     1  UNL1       -0.0649
      2 C           2.4564    0.0343    0.0691 C.3     1  UNL1       -0.0504
      3 C           2.9631    0.4682   -1.2967 C.3     1  UNL1       -0.0074
      4 C           4.4831    0.4682   -1.2967 C.ar    1  UNL1        0.0828
      5 C           5.2032    0.8459   -2.4854 C.ar    1  UNL1        0.0487
      6 N           6.5960    0.8459   -2.4854 N.ar    1  UNL1       -0.2492
      7 C           7.3310    0.4604   -1.2721 C.3     1  UNL1        0.0665
      8 C           6.3432    0.1106   -0.1710 C.3     1  UNL1        0.0673
      9 O           7.0532   -0.2618    1.0010 O.3     1  UNL1       -0.3757
     10 C           6.1305   -0.5886    2.0297 C.3     1  UNL1        0.0711
     11 C           6.8905   -0.9872    3.2842 C.3     1  UNL1        0.0711
     12 O           5.9677   -1.3140    4.3129 O.3     1  UNL1       -0.3752
     13 C           6.6777   -1.6864    5.4849 C.3     1  UNL1        0.0711
     14 C           5.6900   -2.0362    6.5860 C.3     1  UNL1        0.0711
     15 O           6.4000   -2.4086    7.7580 O.3     1  UNL1       -0.3760
     16 C           5.4772   -2.7354    8.7867 C.3     1  UNL1        0.0632
     17 C           6.2372   -3.1340   10.0412 C.3     1  UNL1        0.0350
     18 N           5.2819   -3.4723   11.1061 N.am    1  UNL1       -0.3133
     19 C           5.7719   -3.8920   12.4269 C.2     1  UNL1        0.2100
     20 C           7.2663   -3.9761   12.6917 C.3     1  UNL1        0.0121
     21 O           4.9461   -4.1845   13.3476 O.2     1  UNL1       -0.2761
     22 N           7.2687    1.1987   -3.5959 N.ar    1  UNL1       -0.0654
     23 N           5.1795    0.1030   -0.1471 N.ar    1  UNL1       -0.1345
     24 H           0.5797   -0.2712    1.0306 H       1  UNL1        0.0230
     25 H           0.5797   -0.6456   -0.6761 H       1  UNL1        0.0230
     26 H           0.5797    1.0196   -0.1470 H       1  UNL1        0.0230
     27 H           2.8131   -0.9511    0.2853 H       1  UNL1        0.0266
     28 H           2.8131    0.7142    0.8144 H       1  UNL1        0.0266
     29 H           2.6064    1.4536   -1.5128 H       1  UNL1        0.0329
     30 H           2.6064   -0.2117   -2.0419 H       1  UNL1        0.0329
     31 H           4.6872    1.1165   -3.3371 H       1  UNL1        0.0845
     32 H           7.9461    1.2759   -0.9535 H       1  UNL1        0.0532
     33 H           7.9461   -0.3894   -1.4826 H       1  UNL1        0.0532
     34 H           5.7281   -0.7049   -0.4895 H       1  UNL1        0.0578
     35 H           5.7281    0.9604    0.0395 H       1  UNL1        0.0578
     36 H           5.5153   -1.4041    1.7111 H       1  UNL1        0.0583
     37 H           5.5153    0.2612    2.2402 H       1  UNL1        0.0583
     38 H           7.5056   -0.1717    3.6028 H       1  UNL1        0.0583
     39 H           7.5056   -1.8370    3.0737 H       1  UNL1        0.0583
     40 H           7.2929   -0.8709    5.8035 H       1  UNL1        0.0583
     41 H           7.2929   -2.5362    5.2744 H       1  UNL1        0.0583
     42 H           5.0748   -2.8517    6.2674 H       1  UNL1        0.0583
     43 H           5.0748   -1.1864    6.7965 H       1  UNL1        0.0583
     44 H           4.8620   -3.5509    8.4681 H       1  UNL1        0.0575
     45 H           4.8620   -1.8856    8.9972 H       1  UNL1        0.0575
     46 H           6.8524   -2.3185   10.3598 H       1  UNL1        0.0484
     47 H           6.8524   -3.9838    9.8307 H       1  UNL1        0.0484
     48 H           4.3140   -3.4179   10.9346 H       1  UNL1        0.1488
     49 H           7.8013   -3.6955   11.8085 H       1  UNL1        0.0322
     50 H           7.5248   -4.9786   12.9619 H       1  UNL1        0.0322
     51 H           7.5248   -3.3133   13.4909 H       1  UNL1        0.0322
@<TRIPOS>BOND
     1     1     2    1
     2     2     3    1
     3     3     4    1
     4     4     5   ar
     5     5     6   ar
     6     6     7    1
     7     7     8    1
     8     8     9    1
     9     9    10    1
    10    10    11    1
    11    11    12    1
    12    12    13    1
    13    13    14    1
    14    14    15    1
    15    15    16    1
    16    16    17    1
    17    17    18    1
    18    18    19   am
    19    19    20    1
    20    19    21    2
    21     6    22   ar
    22    22    23   ar
    23     4    23   ar
    24     1    24    1
    25     1    25    1
    26     1    26    1
    27     2    27    1
    28     2    28    1
    29     3    29    1
    30     3    30    1
    31     5    31    1
    32     7    32    1
    33     7    33    1
    34     8    34    1
    35     8    35    1
    36    10    36    1
    37    10    37    1
    38    11    38    1
    39    11    39    1
    40    13    40    1
    41    13    41    1
    42    14    42    1
    43    14    43    1
    44    16    44    1
    45    16    45    1
    46    17    46    1
    47    17    47    1
    48    18    48    1
    49    20    49    1
    50    20    50    1
    51    20    51    1
