@<TRIPOS>MOLECULE
*****
 38 37 0 0 0
SMALL
GASTEIGER

@<TRIPOS>ATOM
      1 C           0.9231    0.0223   -0.0599 C.3     1  UNL1        0.0121
      2 C           2.4431    0.0223   -0.0599 C.2     1  UNL1        0.2100
      3 O           3.0786    1.0715   -0.3924 O.2     1  UNL1       -0.2761
      4 N           3.1781   -1.1913    0.3247 N.am    1  UNL1       -0.3133
      5 C           4.6481   -1.1913    0.3247 C.3     1  UNL1        0.0350
      6 C           5.1548   -2.5574    0.7576 C.3     1  UNL1        0.0632
      7 O           6.5748   -2.5574    0.7576 O.3     1  UNL1       -0.3760
      8 C           7.0481   -3.8336    1.1621 C.3     1  UNL1        0.0711
      9 C           8.5681   -3.8336    1.1621 C.3     1  UNL1        0.0711
     10 O           9.0414   -5.1098    1.5665 O.3     1  UNL1       -0.3752
     11 C          10.4614   -5.1098    1.5665 C.3     1  UNL1        0.0711
     12 C          10.9681   -6.4760    1.9994 C.3     1  UNL1        0.0710
     13 O          12.3881   -6.4760    1.9994 O.3     1  UNL1       -0.3771
     14 C          12.8614   -7.7522    2.4039 C.3     1  UNL1        0.0542
     15 C          14.3814   -7.7522    2.4039 C.3     1  UNL1        0.0262
     16 C          14.8881   -9.1183    2.8368 C.2     1  UNL1        0.1225
     17 O          16.1376   -9.3397    2.9070 O.2     1  UNL1       -0.3010
     18 H           0.5664    0.9840   -0.3647 H       1  UNL1        0.0322
     19 H           0.5664   -0.1946    0.9253 H       1  UNL1        0.0322
     20 H           0.5664   -0.7225   -0.7404 H       1  UNL1        0.0322
     21 H           2.6859   -2.0040    0.5823 H       1  UNL1        0.1488
     22 H           5.0048   -0.4465    1.0051 H       1  UNL1        0.0484
     23 H           5.0048   -0.9744   -0.6605 H       1  UNL1        0.0484
     24 H           4.7981   -3.3021    0.0772 H       1  UNL1        0.0575
     25 H           4.7981   -2.7743    1.7428 H       1  UNL1        0.0575
     26 H           6.6914   -4.5784    0.4816 H       1  UNL1        0.0583
     27 H           6.6914   -4.0505    2.1473 H       1  UNL1        0.0583
     28 H           8.9248   -3.0888    1.8425 H       1  UNL1        0.0583
     29 H           8.9248   -3.6167    0.1769 H       1  UNL1        0.0583
     30 H          10.8181   -4.3651    2.2470 H       1  UNL1        0.0583
     31 H          10.8181   -4.8929    0.5813 H       1  UNL1        0.0583
     32 H          10.6114   -7.2207    1.3190 H       1  UNL1        0.0583
     33 H          10.6114   -6.6929    2.9847 H       1  UNL1        0.0583
     34 H          12.5047   -8.4970    1.7234 H       1  UNL1        0.0564
     35 H          12.5047   -7.9691    3.3891 H       1  UNL1        0.0564
     36 H          14.7381   -7.0074    3.0843 H       1  UNL1        0.0361
     37 H          14.7381   -7.5353    1.4187 H       1  UNL1        0.0361
     38 H          14.2174   -9.8661    3.0738 H       1  UNL1        0.1027
@<TRIPOS>BOND
     1     1     2    1
     2     2     3    2
     3     2     4   am
     4     4     5    1
     5     5     6    1
     6     6     7    1
     7     7     8    1
     8     8     9    1
     9     9    10    1
    10    10    11    1
    11    11    12    1
    12    12    13    1
    13    13    14    1
    14    14    15    1
    15    15    16    1
    16    16    17    2
    17     1    18    1
    18     1    19    1
    19     1    20    1
    20     4    21    1
    21     5    22    1
    22     5    23    1
    23     6    24    1
    24     6    25    1
    25     8    26    1
    26     8    27    1
    27     9    28    1
    28     9    29    1
    29    11    30    1
    30    11    31    1
    31    12    32    1
    32    12    33    1
    33    14    34    1
    34    14    35    1
    35    15    36    1
    36    15    37    1
    37    16    38    1
