@<TRIPOS>MOLECULE
*****
 23 23 0 0 0
SMALL
GASTEIGER

@<TRIPOS>ATOM
      1 O           1.0941   -0.0265   -0.0211 O.3     1  UNL1       -0.3937
      2 C           2.5141   -0.0265   -0.0211 C.3     1  UNL1        0.0569
      3 C           3.0208   -1.2390    0.7429 C.3     1  UNL1        0.0222
      4 N           4.4908   -1.2390    0.7429 N.3     1  UNL1       -0.2978
      5 C           4.9807   -2.4116    1.4817 C.3     1  UNL1        0.0116
      6 C           6.5007   -2.4116    1.4817 C.3     1  UNL1        0.0087
      7 N           6.9907   -3.5842    2.2205 N.3     1  UNL1       -0.3136
      8 C           8.4607   -3.5842    2.2205 C.3     1  UNL1        0.0087
      9 C           4.9808   -0.0129    1.3890 C.3     1  UNL1        0.0116
     10 H           0.7708    0.7472   -0.5086 H       1  UNL1        0.2095
     11 H           2.8708    0.8660    0.4492 H       1  UNL1        0.0570
     12 H           2.8708   -0.0655   -1.0291 H       1  UNL1        0.0570
     13 H           2.6641   -2.1315    0.2726 H       1  UNL1        0.0449
     14 H           2.6641   -1.2000    1.7509 H       1  UNL1        0.0449
     15 H           4.6241   -3.3041    1.0114 H       1  UNL1        0.0439
     16 H           4.6241   -2.3726    2.4898 H       1  UNL1        0.0439
     17 H           6.8574   -1.5191    1.9520 H       1  UNL1        0.0437
     18 H           6.8574   -2.4506    0.4737 H       1  UNL1        0.0437
     19 H           6.6507   -4.4349    1.7722 H       1  UNL1        0.1220
     20 H           9.0283   -4.0198    1.4250 H       1  UNL1        0.0437
     21 H           9.2858   -3.7974    2.8676 H       1  UNL1        0.0437
     22 H           5.2524    0.8062    0.7563 H       1  UNL1        0.0439
     23 H           4.4842    0.6191    2.0953 H       1  UNL1        0.0439
@<TRIPOS>BOND
     1     1     2    1
     2     2     3    1
     3     3     4    1
     4     4     5    1
     5     5     6    1
     6     6     7    1
     7     7     8    1
     8     8     9    1
     9     4     9    1
    10     1    10    1
    11     2    11    1
    12     2    12    1
    13     3    13    1
    14     3    14    1
    15     5    15    1
    16     5    16    1
    17     6    17    1
    18     6    18    1
    19     7    19    1
    20     8    20    1
    21     8    21    1
    22     9    22    1
    23     9    23    1
