@<TRIPOS>MOLECULE
*****
 24 24 0 0 0
SMALL
GASTEIGER

@<TRIPOS>ATOM
      1 C           1.0178   -0.0779   -0.0602 C.3     1  UNL1        0.0788
      2 O           2.4378   -0.0779   -0.0602 O.3     1  UNL1       -0.4950
      3 C           3.1478   -0.8098   -1.0484 C.ar    1  UNL1        0.1238
      4 C           4.5880   -0.8098   -1.0484 C.ar    1  UNL1        0.0215
      5 C           5.3081   -1.5521   -2.0507 C.ar    1  UNL1        0.1206
      6 O           4.5981   -2.2841   -3.0389 O.3     1  UNL1       -0.5066
      7 C           6.7483   -1.5521   -2.0507 C.ar    1  UNL1       -0.0167
      8 C           7.4684   -2.2945   -3.0529 C.ar    1  UNL1       -0.0383
      9 C           8.9884   -2.2945   -3.0529 C.3     1  UNL1       -0.0042
     10 C           9.4950   -3.1474   -4.2045 C.3     1  UNL1        0.0482
     11 O          10.9150   -3.1474   -4.2045 O.3     1  UNL1       -0.3947
     12 C           2.4277   -1.5521   -2.0507 C.ar    1  UNL1       -0.0165
     13 H           0.6611    0.5225    0.7505 H       1  UNL1        0.0660
     14 H           0.6611   -1.0802    0.0545 H       1  UNL1        0.0660
     15 H           0.6611    0.3240   -0.9855 H       1  UNL1        0.0660
     16 H           5.1040   -0.2779   -0.3302 H       1  UNL1        0.0691
     17 H           3.6611   -2.2841   -3.0389 H       1  UNL1        0.2921
     18 H           7.2643   -1.0202   -1.3325 H       1  UNL1        0.0657
     19 H           9.3450   -2.6963   -2.1276 H       1  UNL1        0.0335
     20 H           9.3450   -1.2922   -3.1676 H       1  UNL1        0.0335
     21 H           9.1384   -2.7456   -5.1299 H       1  UNL1        0.0560
     22 H           9.1384   -4.1497   -4.0899 H       1  UNL1        0.0560
     23 H          11.2384   -2.2388   -4.3085 H       1  UNL1        0.2094
     24 H           1.4781   -1.7927   -2.3754 H       1  UNL1        0.0657
@<TRIPOS>BOND
     1     1     2    1
     2     2     3    1
     3     3     4   ar
     4     4     5   ar
     5     5     6    1
     6     5     7   ar
     7     7     8   ar
     8     8     9    1
     9     9    10    1
    10    10    11    1
    11     8    12   ar
    12     3    12   ar
    13     1    13    1
    14     1    14    1
    15     1    15    1
    16     4    16    1
    17     6    17    1
    18     7    18    1
    19     9    19    1
    20     9    20    1
    21    10    21    1
    22    10    22    1
    23    11    23    1
    24    12    24    1
