@<TRIPOS>MOLECULE
*****
 30 31 0 0 0
SMALL
GASTEIGER

@<TRIPOS>ATOM
      1 C           0.9276   -0.0486   -0.0489 C.1     1  UNL1       -0.1139
      2 C           2.2314   -0.0486   -0.0489 C.1     1  UNL1       -0.0681
      3 C           3.7514   -0.0486   -0.0489 C.ar    1  UNL1        0.0429
      4 C           4.4715    1.1243   -0.4732 C.ar    1  UNL1       -0.0416
      5 C           5.9117    1.1243   -0.4732 C.ar    1  UNL1       -0.0205
      6 C           6.6318    2.2971   -0.8975 C.ar    1  UNL1        0.1214
      7 N           5.8968    3.4942   -1.3306 N.pl3   1  UNL1       -0.3127
      8 C           4.4268    3.4942   -1.3306 C.3     1  UNL1        0.0263
      9 C           3.9202    4.8418   -1.8182 C.3     1  UNL1        0.0144
     10 N           2.4502    4.8418   -1.8182 N.3     1  UNL1       -0.3024
     11 C           1.9602    4.5985   -0.4538 C.3     1  UNL1       -0.0126
     12 C           1.9602    6.1451   -2.2897 C.3     1  UNL1        0.0144
     13 C           6.6318    4.6914   -1.7637 C.3     1  UNL1        0.0263
     14 N           8.0246    2.2971   -0.8975 N.ar    1  UNL1       -0.2391
     15 C           4.4715   -1.2214    0.3754 C.ar    1  UNL1        0.0450
     16 H          -0.0664   -0.0486   -0.0489 H       1  UNL1        0.1232
     17 H           3.9555    1.9647   -0.7773 H       1  UNL1        0.0631
     18 H           6.4277    0.2838   -0.1692 H       1  UNL1        0.0652
     19 H           4.0702    3.3171   -0.3375 H       1  UNL1        0.0477
     20 H           4.0702    2.7227   -1.9806 H       1  UNL1        0.0477
     21 H           4.2768    5.0189   -2.8113 H       1  UNL1        0.0442
     22 H           4.2768    5.6134   -1.1682 H       1  UNL1        0.0442
     23 H           2.3168    3.6499   -0.1106 H       1  UNL1        0.0391
     24 H           0.8902    4.5985   -0.4538 H       1  UNL1        0.0391
     25 H           2.3168    5.3701    0.1962 H       1  UNL1        0.0391
     26 H           1.5189    6.8489   -1.6152 H       1  UNL1        0.0442
     27 H           1.3253    6.5275   -3.0614 H       1  UNL1        0.0442
     28 H           7.2092    5.1953   -1.0170 H       1  UNL1        0.0477
     29 H           7.3980    4.7318   -2.5096 H       1  UNL1        0.0477
     30 H           4.3501   -2.1851    0.7241 H       1  UNL1        0.0843
@<TRIPOS>BOND
     1     1     2    3
     2     2     3    1
     3     3     4   ar
     4     4     5   ar
     5     5     6   ar
     6     6     7    1
     7     7     8    1
     8     8     9    1
     9     9    10    1
    10    10    11    1
    11    10    12    1
    12    12    13    1
    13     7    13    1
    14     6    14   ar
    15    14    15   ar
    16     3    15   ar
    17     1    16    1
    18     4    17    1
    19     5    18    1
    20     8    19    1
    21     8    20    1
    22     9    21    1
    23     9    22    1
    24    11    23    1
    25    11    24    1
    26    11    25    1
    27    12    26    1
    28    12    27    1
    29    13    28    1
    30    13    29    1
    31    15    30    1
