@<TRIPOS>MOLECULE
*****
 32 34 0 0 0
SMALL
GASTEIGER

@<TRIPOS>ATOM
      1 C           0.9929    0.0978   -0.0195 C.3     1  UNL1        0.0087
      2 C           2.5129    0.0978   -0.0195 C.3     1  UNL1        0.0118
      3 N           3.0029   -0.8871    0.9556 N.3     1  UNL1       -0.2970
      4 C           2.5129   -2.2240    0.5902 C.3     1  UNL1        0.0117
      5 C           0.9929   -2.2240    0.5902 C.3     1  UNL1       -0.0293
      6 C           0.4863   -3.6063    0.2123 C.3     1  UNL1       -0.0014
      7 C          -1.0337   -3.6063    0.2123 C.3     1  UNL1        0.0028
      8 N          -1.5237   -4.9432   -0.1532 N.3     1  UNL1       -0.3148
      9 C           0.9929   -4.6247    1.2205 C.3     1  UNL1        0.0028
     10 C           3.0196   -3.2424    1.5984 C.3     1  UNL1       -0.0293
     11 C           4.4729   -0.8871    0.9556 C.3     1  UNL1        0.0118
     12 C           4.9796   -1.9055    1.9638 C.3     1  UNL1        0.0087
     13 N           0.5029    1.0828   -0.9945 N.3     1  UNL1       -0.3136
     14 H           0.6363    0.3540    0.9563 H       1  UNL1        0.0437
     15 H           0.6363   -0.8753   -0.2855 H       1  UNL1        0.0437
     16 H           2.8696    1.0709    0.2466 H       1  UNL1        0.0439
     17 H           2.8696   -0.1583   -0.9952 H       1  UNL1        0.0439
     18 H           2.8696   -2.4802   -0.3856 H       1  UNL1        0.0463
     19 H           0.6363   -1.5070   -0.1196 H       1  UNL1        0.0286
     20 H           0.6363   -1.9678    1.5659 H       1  UNL1        0.0286
     21 H          -1.3904   -2.8894   -0.4974 H       1  UNL1        0.0430
     22 H          -1.3904   -3.3501    1.1880 H       1  UNL1        0.0430
     23 H          -1.5398   -5.2325   -1.1311 H       1  UNL1        0.1220
     24 H           1.8233   -5.2557    0.9812 H       1  UNL1        0.0430
     25 H           1.3145   -4.6022    2.2408 H       1  UNL1        0.0430
     26 H           3.8576   -3.8642    1.3617 H       1  UNL1        0.0286
     27 H           3.3354   -3.2153    2.6203 H       1  UNL1        0.0286
     28 H           4.8296    0.0860    1.2216 H       1  UNL1        0.0439
     29 H           4.8296   -1.1433   -0.0201 H       1  UNL1        0.0439
     30 H           5.3172   -1.6585    2.9486 H       1  UNL1        0.0437
     31 H           5.4816   -2.8383    2.1148 H       1  UNL1        0.0437
     32 H           0.1811    0.8473   -1.9333 H       1  UNL1        0.1220
@<TRIPOS>BOND
     1     1     2    1
     2     2     3    1
     3     3     4    1
     4     4     5    1
     5     5     6    1
     6     6     7    1
     7     7     8    1
     8     8     9    1
     9     6     9    1
    10     6    10    1
    11     4    10    1
    12     3    11    1
    13    11    12    1
    14    12    13    1
    15     1    13    1
    16     1    14    1
    17     1    15    1
    18     2    16    1
    19     2    17    1
    20     4    18    1
    21     5    19    1
    22     5    20    1
    23     7    21    1
    24     7    22    1
    25     8    23    1
    26     9    24    1
    27     9    25    1
    28    10    26    1
    29    10    27    1
    30    11    28    1
    31    11    29    1
    32    12    30    1
    33    12    31    1
    34    13    32    1
