@<TRIPOS>MOLECULE
*****
 39 39 0 0 0
SMALL
GASTEIGER

@<TRIPOS>ATOM
      1 C           1.0673    0.0249   -0.0696 C.3     1  UNL1       -0.0649
      2 C           2.5873    0.0249   -0.0696 C.3     1  UNL1       -0.0504
      3 C           3.0940   -1.2228   -0.7744 C.3     1  UNL1       -0.0074
      4 C           4.6140   -1.2228   -0.7744 C.ar    1  UNL1        0.0828
      5 C           5.3341   -2.3088   -1.3879 C.ar    1  UNL1        0.0487
      6 N           6.7269   -2.3088   -1.3879 N.ar    1  UNL1       -0.2492
      7 C           7.4619   -1.2004   -0.7618 C.3     1  UNL1        0.0665
      8 C           6.4741   -0.1944   -0.1935 C.3     1  UNL1        0.0673
      9 O           7.1841    0.8763    0.4113 O.3     1  UNL1       -0.3757
     10 C           6.2614    1.8161    0.9421 C.3     1  UNL1        0.0711
     11 C           7.0214    2.9622    1.5895 C.3     1  UNL1        0.0711
     12 O           6.0986    3.9020    2.1203 O.3     1  UNL1       -0.3763
     13 C           6.8086    4.9727    2.7251 C.3     1  UNL1        0.0600
     14 C           5.8209    5.9786    3.2933 C.3     1  UNL1        0.0166
     15 N           6.5559    7.0871    3.9195 N.3     1  UNL1       -0.3279
     16 N           7.3996   -3.3234   -1.9609 N.ar    1  UNL1       -0.0654
     17 N           5.3104   -0.1726   -0.1812 N.ar    1  UNL1       -0.1345
     18 H           0.7106    0.9033    0.4265 H       1  UNL1        0.0230
     19 H           0.7106   -0.8439    0.4430 H       1  UNL1        0.0230
     20 H           0.7106    0.0154   -1.0784 H       1  UNL1        0.0230
     21 H           2.9440    0.0344    0.9391 H       1  UNL1        0.0266
     22 H           2.9440    0.8938   -0.5822 H       1  UNL1        0.0266
     23 H           2.7373   -1.2323   -1.7832 H       1  UNL1        0.0329
     24 H           2.7373   -2.0917   -0.2618 H       1  UNL1        0.0329
     25 H           4.8181   -3.0870   -1.8274 H       1  UNL1        0.0845
     26 H           8.0770   -0.7213   -1.4946 H       1  UNL1        0.0532
     27 H           8.0770   -1.5807    0.0268 H       1  UNL1        0.0532
     28 H           5.8590   -0.6735    0.5393 H       1  UNL1        0.0578
     29 H           5.8590    0.1859   -0.9821 H       1  UNL1        0.0578
     30 H           5.6462    1.3370    1.6749 H       1  UNL1        0.0583
     31 H           5.6462    2.1964    0.1535 H       1  UNL1        0.0583
     32 H           7.6365    3.4412    0.8567 H       1  UNL1        0.0583
     33 H           7.6365    2.5819    2.3781 H       1  UNL1        0.0583
     34 H           7.4238    5.4517    1.9923 H       1  UNL1        0.0572
     35 H           7.4238    4.5924    3.5137 H       1  UNL1        0.0572
     36 H           5.2057    5.4996    4.0262 H       1  UNL1        0.0444
     37 H           5.2057    6.3590    2.5048 H       1  UNL1        0.0444
     38 H           7.1423    6.7245    4.6712 H       1  UNL1        0.1183
     39 H           5.8930    7.7621    4.3008 H       1  UNL1        0.1183
@<TRIPOS>BOND
     1     1     2    1
     2     2     3    1
     3     3     4    1
     4     4     5   ar
     5     5     6   ar
     6     6     7    1
     7     7     8    1
     8     8     9    1
     9     9    10    1
    10    10    11    1
    11    11    12    1
    12    12    13    1
    13    13    14    1
    14    14    15    1
    15     6    16   ar
    16    16    17   ar
    17     4    17   ar
    18     1    18    1
    19     1    19    1
    20     1    20    1
    21     2    21    1
    22     2    22    1
    23     3    23    1
    24     3    24    1
    25     5    25    1
    26     7    26    1
    27     7    27    1
    28     8    28    1
    29     8    29    1
    30    10    30    1
    31    10    31    1
    32    11    32    1
    33    11    33    1
    34    13    34    1
    35    13    35    1
    36    14    36    1
    37    14    37    1
    38    15    38    1
    39    15    39    1
