@<TRIPOS>MOLECULE
*****
 25 25 0 0 0
SMALL
GASTEIGER

@<TRIPOS>ATOM
      1 C           1.0079   -0.0548   -0.0833 C.3     1  UNL1       -0.0416
      2 C           2.5279   -0.0548   -0.0833 C.3     1  UNL1        0.0449
      3 O           3.0012    0.7961    0.9503 O.3     1  UNL1       -0.3782
      4 C           4.4212    0.7961    0.9503 C.3     1  UNL1        0.0672
      5 C           4.9278    1.7069    2.0567 C.3     1  UNL1        0.0665
      6 N           6.3978    1.7069    2.0567 N.ar    1  UNL1       -0.2488
      7 C           7.0943    2.4735    2.9880 C.ar    1  UNL1        0.0580
      8 C           8.5345    2.4735    2.9880 C.ar    1  UNL1        0.1666
      9 C           9.2945    1.6369    1.9717 C.2     1  UNL1        0.2632
     10 N          10.7645    1.6369    1.9717 N.am    1  UNL1       -0.3240
     11 O           8.6590    0.9374    1.1220 O.2     1  UNL1       -0.2686
     12 N           9.2309    3.2402    3.9193 N.ar    1  UNL1       -0.1248
     13 N           7.0706    0.9664    1.1571 N.ar    1  UNL1       -0.0649
     14 H           0.6512   -0.6959   -0.8621 H       1  UNL1        0.0252
     15 H           0.6512    0.9403   -0.2491 H       1  UNL1        0.0252
     16 H           0.6512   -0.4087    0.8614 H       1  UNL1        0.0252
     17 H           2.8845    0.2991   -1.0280 H       1  UNL1        0.0557
     18 H           2.8845   -1.0499    0.0825 H       1  UNL1        0.0557
     19 H           4.7779    1.1500    0.0056 H       1  UNL1        0.0578
     20 H           4.7779   -0.1990    1.1162 H       1  UNL1        0.0578
     21 H           4.5712    1.3530    3.0014 H       1  UNL1        0.0532
     22 H           4.5712    2.7020    1.8909 H       1  UNL1        0.0532
     23 H           6.5783    3.0416    3.6780 H       1  UNL1        0.0850
     24 H          11.2567    2.1788    2.6299 H       1  UNL1        0.1453
     25 H          11.2567    1.0950    1.3134 H       1  UNL1        0.1453
@<TRIPOS>BOND
     1     1     2    1
     2     2     3    1
     3     3     4    1
     4     4     5    1
     5     5     6    1
     6     6     7   ar
     7     7     8   ar
     8     8     9    1
     9     9    10   am
    10     9    11    2
    11     8    12   ar
    12    12    13   ar
    13     6    13   ar
    14     1    14    1
    15     1    15    1
    16     1    16    1
    17     2    17    1
    18     2    18    1
    19     4    19    1
    20     4    20    1
    21     5    21    1
    22     5    22    1
    23     7    23    1
    24    10    24    1
    25    10    25    1
