@<TRIPOS>MOLECULE
*****
 30 31 0 0 0
SMALL
GASTEIGER

@<TRIPOS>ATOM
      1 O           0.9670    0.0187    0.0925 O.2     1  UNL1       -0.2793
      2 C           2.2379    0.0187    0.0925 C.2     1  UNL1        0.2026
      3 N           2.9729    1.0288    0.8673 N.am    1  UNL1       -0.3016
      4 C           4.4429    1.0288    0.8673 C.3     1  UNL1        0.0272
      5 C           4.9495    2.1660    1.7394 C.3     1  UNL1        0.0148
      6 N           6.4195    2.1660    1.7394 N.3     1  UNL1       -0.2990
      7 C           6.9095    2.3465    0.3653 C.3     1  UNL1        0.0041
      8 C           6.4029    1.2094   -0.5068 C.3     1  UNL1       -0.0032
      9 C           6.9095    1.3961   -1.9277 C.3     1  UNL1        0.0011
     10 N           6.4195    0.2963   -2.7711 N.3     1  UNL1       -0.3153
     11 C           4.8829    1.2094   -0.5068 C.3     1  UNL1        0.0011
     12 C           6.9095    3.2657    2.5828 C.3     1  UNL1        0.0148
     13 C           2.2379    2.0390    1.6420 C.3     1  UNL1        0.0272
     14 H           2.7539   -0.6905   -0.4514 H       1  UNL1        0.1253
     15 H           4.7995    1.1603   -0.1329 H       1  UNL1        0.0477
     16 H           4.7995    0.0969    1.2535 H       1  UNL1        0.0477
     17 H           4.5929    2.0345    2.7396 H       1  UNL1        0.0442
     18 H           4.5929    3.0979    1.3531 H       1  UNL1        0.0442
     19 H           7.9795    2.3465    0.3653 H       1  UNL1        0.0430
     20 H           6.5529    3.2785   -0.0210 H       1  UNL1        0.0430
     21 H           6.7595    0.2775   -0.1206 H       1  UNL1        0.0338
     22 H           7.9795    1.3961   -1.9277 H       1  UNL1        0.0428
     23 H           6.5529    2.3280   -2.3140 H       1  UNL1        0.0428
     24 H           6.8797   -0.6135   -2.7438 H       1  UNL1        0.1220
     25 H           4.3421    0.5108    0.0968 H       1  UNL1        0.0428
     26 H           4.1140    1.9349   -0.3416 H       1  UNL1        0.0428
     27 H           7.3507    4.1405    2.1527 H       1  UNL1        0.0442
     28 H           7.5444    3.3969    3.4340 H       1  UNL1        0.0442
     29 H           1.6605    2.7451    1.0825 H       1  UNL1        0.0477
     30 H           1.4717    1.8520    2.3651 H       1  UNL1        0.0477
@<TRIPOS>BOND
     1     1     2    2
     2     2     3   am
     3     3     4    1
     4     4     5    1
     5     5     6    1
     6     6     7    1
     7     7     8    1
     8     8     9    1
     9     9    10    1
    10    10    11    1
    11     8    11    1
    12     6    12    1
    13    12    13    1
    14     3    13    1
    15     2    14    1
    16     4    15    1
    17     4    16    1
    18     5    17    1
    19     5    18    1
    20     7    19    1
    21     7    20    1
    22     8    21    1
    23     9    22    1
    24     9    23    1
    25    10    24    1
    26    11    25    1
    27    11    26    1
    28    12    27    1
    29    12    28    1
    30    13    29    1
    31    13    30    1
