@<TRIPOS>MOLECULE
*****
 47 46 0 0 0
SMALL
GASTEIGER

@<TRIPOS>ATOM
      1 O           0.9670   -0.0336    0.0882 O.2     1  UNL1       -0.2963
      2 C           2.2379   -0.0336    0.0882 C.2     1  UNL1        0.1429
      3 C           2.9979   -1.2148    0.6693 C.2     1  UNL1       -0.0242
      4 C           4.3583   -1.2148    0.6693 C.2     1  UNL1       -0.0557
      5 C           5.1183   -2.3960    1.2503 C.3     1  UNL1        0.0663
      6 O           6.5143   -2.1631    1.1358 O.3     1  UNL1       -0.3735
      7 C           7.2243   -3.2666    1.6786 C.3     1  UNL1        0.0714
      8 C           8.7188   -3.0174    1.5560 C.3     1  UNL1        0.0711
      9 O           9.4288   -4.1208    2.0988 O.3     1  UNL1       -0.3752
     10 C          10.8248   -3.8880    1.9843 C.3     1  UNL1        0.0711
     11 C          11.5848   -5.0692    2.5654 C.3     1  UNL1        0.0711
     12 O          12.9809   -4.8363    2.4508 O.3     1  UNL1       -0.3752
     13 C          13.6909   -5.9398    2.9936 C.3     1  UNL1        0.0711
     14 C          15.1853   -5.6906    2.8710 C.3     1  UNL1        0.0711
     15 O          15.8953   -6.7940    3.4139 O.3     1  UNL1       -0.3752
     16 C          17.2914   -6.5612    3.2993 C.3     1  UNL1        0.0711
     17 C          18.0514   -7.7424    3.8804 C.3     1  UNL1        0.0711
     18 O          19.4475   -7.5095    3.7659 O.3     1  UNL1       -0.3752
     19 C          20.1575   -8.6130    4.3087 C.3     1  UNL1        0.0708
     20 C          21.6519   -8.3638    4.1861 C.3     1  UNL1        0.0676
     21 O          22.3619   -9.4672    4.7289 O.3     1  UNL1       -0.3927
     22 H           2.7539    0.7683   -0.3063 H       1  UNL1        0.1075
     23 H           2.4819   -2.0167    1.0638 H       1  UNL1        0.0647
     24 H           4.8743   -0.4128    0.2747 H       1  UNL1        0.0596
     25 H           4.8598   -3.2851    0.7141 H       1  UNL1        0.0604
     26 H           4.8598   -2.5138    2.2819 H       1  UNL1        0.0604
     27 H           6.9659   -4.1557    1.1423 H       1  UNL1        0.0583
     28 H           6.9659   -3.3844    2.7102 H       1  UNL1        0.0583
     29 H           8.9772   -2.1283    2.0923 H       1  UNL1        0.0583
     30 H           8.9772   -2.8995    0.5244 H       1  UNL1        0.0583
     31 H          11.0833   -2.9989    2.5206 H       1  UNL1        0.0583
     32 H          11.0833   -3.7702    0.9527 H       1  UNL1        0.0583
     33 H          11.3264   -5.9583    2.0291 H       1  UNL1        0.0583
     34 H          11.3263   -5.1870    3.5970 H       1  UNL1        0.0583
     35 H          13.4324   -6.8289    2.4574 H       1  UNL1        0.0583
     36 H          13.4324   -6.0576    4.0252 H       1  UNL1        0.0583
     37 H          15.4438   -4.8015    3.4073 H       1  UNL1        0.0583
     38 H          15.4438   -5.5727    1.8394 H       1  UNL1        0.0583
     39 H          17.5499   -5.6721    3.8356 H       1  UNL1        0.0583
     40 H          17.5499   -6.4434    2.2677 H       1  UNL1        0.0583
     41 H          17.7929   -8.6315    3.3441 H       1  UNL1        0.0583
     42 H          17.7929   -7.8602    4.9120 H       1  UNL1        0.0583
     43 H          19.8990   -9.5021    3.7724 H       1  UNL1        0.0583
     44 H          19.8990   -8.7308    5.3403 H       1  UNL1        0.0583
     45 H          21.9104   -7.4747    4.7223 H       1  UNL1        0.0580
     46 H          21.9104   -8.2459    3.1545 H       1  UNL1        0.0580
     47 H          22.1276   -9.5740    5.6641 H       1  UNL1        0.2095
@<TRIPOS>BOND
     1     1     2    2
     2     2     3    1
     3     3     4    2
     4     4     5    1
     5     5     6    1
     6     6     7    1
     7     7     8    1
     8     8     9    1
     9     9    10    1
    10    10    11    1
    11    11    12    1
    12    12    13    1
    13    13    14    1
    14    14    15    1
    15    15    16    1
    16    16    17    1
    17    17    18    1
    18    18    19    1
    19    19    20    1
    20    20    21    1
    21     2    22    1
    22     3    23    1
    23     4    24    1
    24     5    25    1
    25     5    26    1
    26     7    27    1
    27     7    28    1
    28     8    29    1
    29     8    30    1
    30    10    31    1
    31    10    32    1
    32    11    33    1
    33    11    34    1
    34    13    35    1
    35    13    36    1
    36    14    37    1
    37    14    38    1
    38    16    39    1
    39    16    40    1
    40    17    41    1
    41    17    42    1
    42    19    43    1
    43    19    44    1
    44    20    45    1
    45    20    46    1
    46    21    47    1
