@<TRIPOS>MOLECULE
*****
 31 30 0 0 0
SMALL
GASTEIGER

@<TRIPOS>ATOM
      1 O           0.9518    0.0874    0.0066 O.2     1  UNL1       -0.2733
      2 C           2.2227    0.0874    0.0066 C.2     1  UNL1        0.2386
      3 C           2.9827   -1.1728    0.3869 C.3     1  UNL1        0.1202
      4 O           2.0600   -2.2061    0.6987 O.3     1  UNL1       -0.3858
      5 N           2.9577    1.3062   -0.3612 N.am    1  UNL1       -0.3112
      6 C           4.4277    1.3062   -0.3612 C.3     1  UNL1        0.0351
      7 C           4.9344    2.6781   -0.7752 C.3     1  UNL1        0.0633
      8 O           6.3544    2.6781   -0.7752 O.3     1  UNL1       -0.3760
      9 C           6.8277    3.9598   -1.1620 C.3     1  UNL1        0.0711
     10 C           8.3477    3.9598   -1.1620 C.3     1  UNL1        0.0711
     11 O           8.8211    5.2415   -1.5488 O.3     1  UNL1       -0.3752
     12 C          10.2411    5.2415   -1.5488 C.3     1  UNL1        0.0708
     13 C          10.7477    6.6135   -1.9628 C.3     1  UNL1        0.0676
     14 O          12.1677    6.6135   -1.9628 O.3     1  UNL1       -0.3927
     15 H           3.5979   -0.9747    1.2396 H       1  UNL1        0.0654
     16 H           3.5979   -1.4795   -0.4332 H       1  UNL1        0.0654
     17 H           1.5023   -1.9281    1.4420 H       1  UNL1        0.2100
     18 H           2.4655    2.1224   -0.6075 H       1  UNL1        0.1488
     19 H           4.7844    0.5709   -1.0519 H       1  UNL1        0.0484
     20 H           4.7844    1.0757    0.6209 H       1  UNL1        0.0484
     21 H           4.5777    3.4134   -0.0845 H       1  UNL1        0.0575
     22 H           4.5777    2.9086   -1.7573 H       1  UNL1        0.0575
     23 H           6.4711    4.6951   -0.4713 H       1  UNL1        0.0583
     24 H           6.4711    4.1903   -2.1441 H       1  UNL1        0.0583
     25 H           8.7044    3.2246   -1.8527 H       1  UNL1        0.0583
     26 H           8.7044    3.7293   -0.1799 H       1  UNL1        0.0583
     27 H          10.5977    4.5063   -2.2394 H       1  UNL1        0.0583
     28 H          10.5977    5.0110   -0.5666 H       1  UNL1        0.0583
     29 H          10.3911    7.3488   -1.2721 H       1  UNL1        0.0580
     30 H          10.3911    6.8440   -2.9449 H       1  UNL1        0.0580
     31 H          12.4911    6.4046   -1.0724 H       1  UNL1        0.2095
@<TRIPOS>BOND
     1     1     2    2
     2     2     3    1
     3     3     4    1
     4     2     5   am
     5     5     6    1
     6     6     7    1
     7     7     8    1
     8     8     9    1
     9     9    10    1
    10    10    11    1
    11    11    12    1
    12    12    13    1
    13    13    14    1
    14     3    15    1
    15     3    16    1
    16     4    17    1
    17     5    18    1
    18     6    19    1
    19     6    20    1
    20     7    21    1
    21     7    22    1
    22     9    23    1
    23     9    24    1
    24    10    25    1
    25    10    26    1
    26    12    27    1
    27    12    28    1
    28    13    29    1
    29    13    30    1
    30    14    31    1
