@<TRIPOS>MOLECULE
*****
 17 16 0 0 0
SMALL
GASTEIGER

@<TRIPOS>ATOM
      1 C           0.9410   -0.0623   -0.0513 C.3     1  UNL1       -0.0416
      2 C           2.4610   -0.0623   -0.0513 C.3     1  UNL1        0.0449
      3 O           2.9343    0.9530   -0.9239 O.3     1  UNL1       -0.3796
      4 C           4.3543    0.9530   -0.9239 C.3     1  UNL1        0.0540
      5 C           4.8610    2.0398   -1.8581 C.3     1  UNL1        0.0262
      6 C           6.3810    2.0398   -1.8581 C.2     1  UNL1        0.1225
      7 O           7.0164    2.8745   -2.5755 O.2     1  UNL1       -0.3010
      8 H           0.5843   -0.8274    0.6063 H       1  UNL1        0.0252
      9 H           0.5843   -0.2493   -1.0426 H       1  UNL1        0.0252
     10 H           0.5843    0.8897    0.2825 H       1  UNL1        0.0252
     11 H           2.8177   -1.0143   -0.3851 H       1  UNL1        0.0557
     12 H           2.8177    0.1246    0.9400 H       1  UNL1        0.0557
     13 H           4.7110    0.0010   -1.2577 H       1  UNL1        0.0564
     14 H           4.7110    1.1399    0.0674 H       1  UNL1        0.0564
     15 H           4.5043    2.9918   -1.5243 H       1  UNL1        0.0361
     16 H           4.5043    1.8528   -2.8494 H       1  UNL1        0.0361
     17 H           6.8970    1.3620   -1.2755 H       1  UNL1        0.1027
@<TRIPOS>BOND
     1     1     2    1
     2     2     3    1
     3     3     4    1
     4     4     5    1
     5     5     6    1
     6     6     7    2
     7     1     8    1
     8     1     9    1
     9     1    10    1
    10     2    11    1
    11     2    12    1
    12     4    13    1
    13     4    14    1
    14     5    15    1
    15     5    16    1
    16     6    17    1
