@<TRIPOS>MOLECULE
*****
 26 25 0 0 0
SMALL
GASTEIGER

@<TRIPOS>ATOM
      1 C           0.9123    0.0455   -0.0155 C.3     1  UNL1       -0.0416
      2 C           2.4323    0.0455   -0.0155 C.3     1  UNL1        0.0449
      3 O           2.9056   -0.6326    1.1389 O.3     1  UNL1       -0.3778
      4 C           4.3256   -0.6326    1.1389 C.3     1  UNL1        0.0710
      5 C           4.8323   -1.3585    2.3745 C.3     1  UNL1        0.0711
      6 O           6.2523   -1.3585    2.3745 O.3     1  UNL1       -0.3752
      7 C           6.7256   -2.0366    3.5289 C.3     1  UNL1        0.0711
      8 C           8.2456   -2.0366    3.5289 C.3     1  UNL1        0.0706
      9 O           8.7189   -2.7147    4.6832 O.3     1  UNL1       -0.3807
     10 C          10.1389   -2.7147    4.6832 C.3     1  UNL1        0.0365
     11 H           0.5556    0.5564   -0.8853 H       1  UNL1        0.0252
     12 H           0.5556    0.5433    0.8619 H       1  UNL1        0.0252
     13 H           0.5556   -0.9633   -0.0231 H       1  UNL1        0.0252
     14 H           2.7890    1.0542   -0.0079 H       1  UNL1        0.0557
     15 H           2.7890   -0.4524   -0.8929 H       1  UNL1        0.0557
     16 H           4.6823    0.3761    1.1465 H       1  UNL1        0.0583
     17 H           4.6823   -1.1305    0.2615 H       1  UNL1        0.0583
     18 H           4.4756   -2.3673    2.3669 H       1  UNL1        0.0583
     19 H           4.4756   -0.8607    3.2520 H       1  UNL1        0.0583
     20 H           6.3689   -3.0454    3.5213 H       1  UNL1        0.0583
     21 H           6.3689   -1.5388    4.4063 H       1  UNL1        0.0583
     22 H           8.6023   -1.0278    3.5365 H       1  UNL1        0.0582
     23 H           8.6023   -2.5344    2.6515 H       1  UNL1        0.0582
     24 H          10.4956   -3.2257    5.5531 H       1  UNL1        0.0524
     25 H          10.4956   -1.7059    4.6908 H       1  UNL1        0.0524
     26 H          10.4956   -3.2125    3.8058 H       1  UNL1        0.0524
@<TRIPOS>BOND
     1     1     2    1
     2     2     3    1
     3     3     4    1
     4     4     5    1
     5     5     6    1
     6     6     7    1
     7     7     8    1
     8     8     9    1
     9     9    10    1
    10     1    11    1
    11     1    12    1
    12     1    13    1
    13     2    14    1
    14     2    15    1
    15     4    16    1
    16     4    17    1
    17     5    18    1
    18     5    19    1
    19     7    20    1
    20     7    21    1
    21     8    22    1
    22     8    23    1
    23    10    24    1
    24    10    25    1
    25    10    26    1
