@<TRIPOS>MOLECULE
*****
 70 72 0 0 0
SMALL
GASTEIGER

@<TRIPOS>ATOM
      1 C           0.9144    0.0299    0.0421 C.3     1  UNL1       -0.0652
      2 C           2.4344    0.0299    0.0421 C.3     1  UNL1       -0.0545
      3 C           2.9410   -0.8941   -1.0533 C.3     1  UNL1       -0.0373
      4 C           4.4610   -0.8941   -1.0533 C.3     1  UNL1        0.0165
      5 N           4.9510   -1.7878   -2.1127 N.am    1  UNL1       -0.2811
      6 C           3.9958   -2.5082   -2.9667 C.3     1  UNL1        0.0412
      7 C           2.5773   -2.1560   -2.5492 C.ar    1  UNL1       -0.0301
      8 C           1.4571   -2.7397   -3.2412 C.ar    1  UNL1       -0.0571
      9 C           0.1131   -2.4060   -2.8456 C.ar    1  UNL1       -0.0615
     10 C          -1.0071   -2.9897   -3.5375 C.ar    1  UNL1       -0.0617
     11 C          -2.3511   -2.6560   -3.1420 C.ar    1  UNL1       -0.0615
     12 C           2.3534   -1.2387   -1.4618 C.ar    1  UNL1       -0.0571
     13 C           6.3963   -1.9610   -2.3180 C.2     1  UNL1        0.3067
     14 O           7.2221   -1.3381   -1.5796 O.2     1  UNL1       -0.2523
     15 N           6.8863   -2.8546   -3.3773 N.am    1  UNL1       -0.2693
     16 C           8.3315   -3.0278   -3.5827 C.ar    1  UNL1        0.0350
     17 C           8.8116   -3.9033   -4.6205 C.ar    1  UNL1       -0.0370
     18 C          10.2275   -4.0730   -4.8217 C.ar    1  UNL1       -0.0182
     19 C          10.7076   -4.9485   -5.8596 C.ar    1  UNL1        0.1206
     20 O           9.7848   -5.6444   -6.6846 O.3     1  UNL1       -0.4920
     21 C           8.3887   -5.4771   -6.4862 C.3     1  UNL1        0.0896
     22 C           7.6287   -6.3259   -7.4924 C.3     1  UNL1       -0.0186
     23 C           6.1343   -6.1468   -7.2801 C.3     1  UNL1       -0.0483
     24 C           5.3743   -6.9955   -8.2863 C.3     1  UNL1       -0.0332
     25 C           3.8799   -6.8165   -8.0740 C.3     1  UNL1        0.0432
     26 N           3.1449   -7.6373   -9.0471 N.ar    1  UNL1       -0.2514
     27 C           1.7521   -7.6373   -9.0471 C.ar    1  UNL1        0.0499
     28 C           1.0320   -8.4415  -10.0004 C.ar    1  UNL1        0.0963
     29 C           1.7920   -9.2903  -11.0066 C.3     1  UNL1        0.0393
     30 N           3.2372   -9.1171  -10.8013 N.3     1  UNL1       -0.3248
     31 N          -0.3608   -8.4415  -10.0004 N.ar    1  UNL1       -0.1332
     32 N           3.8176   -8.3886   -9.9377 N.ar    1  UNL1       -0.0654
     33 C          12.1235   -5.1182   -6.0608 C.ar    1  UNL1       -0.0182
     34 C           9.2674   -2.3220   -2.7459 C.ar    1  UNL1       -0.0370
     35 H           0.5577    0.6804    0.8132 H       1  UNL1        0.0230
     36 H           0.5577   -0.9631    0.2199 H       1  UNL1        0.0230
     37 H           0.5577    0.3724   -0.9068 H       1  UNL1        0.0230
     38 H           2.7910   -0.3127    0.9909 H       1  UNL1        0.0263
     39 H           2.7910    1.0229   -0.1357 H       1  UNL1        0.0263
     40 H           2.5843   -0.5516   -2.0022 H       1  UNL1        0.0280
     41 H           2.5843   -1.8872   -0.8755 H       1  UNL1        0.0280
     42 H           4.8177   -1.2367   -0.1044 H       1  UNL1        0.0465
     43 H           4.8177    0.0989   -1.2311 H       1  UNL1        0.0465
     44 H           4.1474   -3.5621   -2.8611 H       1  UNL1        0.0514
     45 H           4.1474   -2.2265   -3.9878 H       1  UNL1        0.0514
     46 H           1.6175   -3.3970   -4.0204 H       1  UNL1        0.0621
     47 H          -0.0473   -1.7487   -2.0664 H       1  UNL1        0.0618
     48 H          -0.8467   -3.6470   -4.3168 H       1  UNL1        0.0618
     49 H          -3.3825   -2.6792   -3.1694 H       1  UNL1        0.0618
     50 H           2.8380   -0.6512   -0.7653 H       1  UNL1        0.0621
     51 H           6.2465   -3.3371   -3.9493 H       1  UNL1        0.1564
     52 H           8.1409   -4.4091   -5.2201 H       1  UNL1        0.0637
     53 H          10.8981   -3.5672   -4.2221 H       1  UNL1        0.0655
     54 H           8.1302   -4.4475   -6.6207 H       1  UNL1        0.0696
     55 H           8.1302   -5.7831   -5.4941 H       1  UNL1        0.0696
     56 H           7.8872   -7.3554   -7.3580 H       1  UNL1        0.0298
     57 H           7.8872   -6.0199   -8.4846 H       1  UNL1        0.0298
     58 H           5.8758   -5.1172   -7.4146 H       1  UNL1        0.0267
     59 H           5.8758   -6.4528   -6.2879 H       1  UNL1        0.0267
     60 H           5.6328   -8.0251   -8.1519 H       1  UNL1        0.0283
     61 H           5.6328   -6.6895   -9.2785 H       1  UNL1        0.0283
     62 H           3.6214   -5.7869   -8.2084 H       1  UNL1        0.0509
     63 H           3.6214   -7.1225   -7.0818 H       1  UNL1        0.0509
     64 H           1.2361   -7.0610   -8.3639 H       1  UNL1        0.0845
     65 H           1.5335   -8.9843  -11.9988 H       1  UNL1        0.0488
     66 H           1.5335  -10.3198  -10.8722 H       1  UNL1        0.0488
     67 H           3.4836   -8.1356  -10.9294 H       1  UNL1        0.1186
     68 H           3.7472   -9.6866  -11.4765 H       1  UNL1        0.1186
     69 H          12.9833   -5.4862   -6.4971 H       1  UNL1        0.0655
     70 H           9.3318   -1.6578   -1.9587 H       1  UNL1        0.0637
@<TRIPOS>BOND
     1     1     2    1
     2     2     3    1
     3     3     4    1
     4     4     5    1
     5     5     6    1
     6     6     7    1
     7     7     8   ar
     8     8     9   ar
     9     9    10   ar
    10    10    11   ar
    11    11    12   ar
    12     7    12   ar
    13     5    13   am
    14    13    14    2
    15    13    15   am
    16    15    16    1
    17    16    17   ar
    18    17    18   ar
    19    18    19   ar
    20    19    20    1
    21    20    21    1
    22    21    22    1
    23    22    23    1
    24    23    24    1
    25    24    25    1
    26    25    26    1
    27    26    27   ar
    28    27    28   ar
    29    28    29    1
    30    29    30    1
    31    28    31   ar
    32    31    32   ar
    33    26    32   ar
    34    19    33   ar
    35    33    34   ar
    36    16    34   ar
    37     1    35    1
    38     1    36    1
    39     1    37    1
    40     2    38    1
    41     2    39    1
    42     3    40    1
    43     3    41    1
    44     4    42    1
    45     4    43    1
    46     6    44    1
    47     6    45    1
    48     8    46    1
    49     9    47    1
    50    10    48    1
    51    11    49    1
    52    12    50    1
    53    15    51    1
    54    17    52    1
    55    18    53    1
    56    21    54    1
    57    21    55    1
    58    22    56    1
    59    22    57    1
    60    23    58    1
    61    23    59    1
    62    24    60    1
    63    24    61    1
    64    25    62    1
    65    25    63    1
    66    27    64    1
    67    29    65    1
    68    29    66    1
    69    30    67    1
    70    30    68    1
    71    33    69    1
    72    34    70    1
