@<TRIPOS>MOLECULE
*****
 32 32 0 0 0
SMALL
GASTEIGER

@<TRIPOS>ATOM
      1 C           0.9439   -0.0365   -0.0743 C.3     1  UNL1       -0.0416
      2 C           2.4639   -0.0365   -0.0743 C.3     1  UNL1        0.0449
      3 O           2.9373    1.1406    0.5635 O.3     1  UNL1       -0.3778
      4 C           4.3573    1.1406    0.5635 C.3     1  UNL1        0.0710
      5 C           4.8639    2.4006    1.2462 C.3     1  UNL1        0.0711
      6 O           6.2839    2.4006    1.2462 O.3     1  UNL1       -0.3757
      7 C           6.7573    3.5777    1.8840 C.3     1  UNL1        0.0673
      8 C           8.2773    3.5777    1.8840 C.3     1  UNL1        0.0665
      9 N           8.7673    4.7962    2.5443 N.ar    1  UNL1       -0.2488
     10 C          10.1366    5.0200    2.6655 C.ar    1  UNL1        0.0580
     11 C          10.6167    6.2138    3.3124 C.ar    1  UNL1        0.1666
     12 C           9.6289    7.2296    3.8628 C.2     1  UNL1        0.2632
     13 N          10.1189    8.4482    4.5231 N.am    1  UNL1       -0.3240
     14 O           8.3794    7.0254    3.7522 O.2     1  UNL1       -0.2686
     15 N          11.9861    6.4376    3.4337 N.ar    1  UNL1       -0.1248
     16 N           7.8929    5.6953    3.0315 N.ar    1  UNL1       -0.0649
     17 H           0.5873   -0.9235   -0.5549 H       1  UNL1        0.0252
     18 H           0.5873    0.8232   -0.6022 H       1  UNL1        0.0252
     19 H           0.5873   -0.0093    0.9341 H       1  UNL1        0.0252
     20 H           2.8206   -0.0638   -1.0828 H       1  UNL1        0.0557
     21 H           2.8206   -0.8962    0.4535 H       1  UNL1        0.0557
     22 H           4.7139    1.1133   -0.4449 H       1  UNL1        0.0583
     23 H           4.7139    0.2809    1.0913 H       1  UNL1        0.0583
     24 H           4.5073    2.4278    2.2546 H       1  UNL1        0.0583
     25 H           4.5073    3.2603    0.7184 H       1  UNL1        0.0583
     26 H           6.4006    3.6049    2.8925 H       1  UNL1        0.0578
     27 H           6.4006    4.4374    1.3562 H       1  UNL1        0.0578
     28 H           8.6339    3.5504    0.8756 H       1  UNL1        0.0532
     29 H           8.6339    2.7180    2.4119 H       1  UNL1        0.0532
     30 H          10.8073    4.3303    2.2918 H       1  UNL1        0.0850
     31 H          11.0869    8.6063    4.6088 H       1  UNL1        0.1453
     32 H           9.4792    9.1061    4.8796 H       1  UNL1        0.1453
@<TRIPOS>BOND
     1     1     2    1
     2     2     3    1
     3     3     4    1
     4     4     5    1
     5     5     6    1
     6     6     7    1
     7     7     8    1
     8     8     9    1
     9     9    10   ar
    10    10    11   ar
    11    11    12    1
    12    12    13   am
    13    12    14    2
    14    11    15   ar
    15    15    16   ar
    16     9    16   ar
    17     1    17    1
    18     1    18    1
    19     1    19    1
    20     2    20    1
    21     2    21    1
    22     4    22    1
    23     4    23    1
    24     5    24    1
    25     5    25    1
    26     7    26    1
    27     7    27    1
    28     8    28    1
    29     8    29    1
    30    10    30    1
    31    13    31    1
    32    13    32    1
