@<TRIPOS>MOLECULE
*****
 18 17 0 0 0
SMALL
GASTEIGER

@<TRIPOS>ATOM
      1 C           0.9262    0.0675   -0.0004 C.3     1  UNL1       -0.0653
      2 C           2.4462    0.0675   -0.0004 C.3     1  UNL1       -0.0555
      3 C           2.9529   -1.0809   -0.8576 C.3     1  UNL1       -0.0450
      4 C           4.4729   -1.0809   -0.8576 C.3     1  UNL1        0.0237
      5 C           4.9795   -2.2293   -1.7149 C.2     1  UNL1        0.2105
      6 N           4.0243   -3.1246   -2.3833 N.am    1  UNL1       -0.3293
      7 O           6.2290   -2.4154   -1.8538 O.2     1  UNL1       -0.2760
      8 H           0.5696    0.8759    0.6031 H       1  UNL1        0.0230
      9 H           0.5696   -0.8593    0.3980 H       1  UNL1        0.0230
     10 H           0.5696    0.1859   -1.0022 H       1  UNL1        0.0230
     11 H           2.8029   -0.0509    1.0015 H       1  UNL1        0.0263
     12 H           2.8029    0.9943   -0.3987 H       1  UNL1        0.0263
     13 H           2.5962   -0.9625   -1.8595 H       1  UNL1        0.0270
     14 H           2.5962   -2.0077   -0.4593 H       1  UNL1        0.0270
     15 H           4.8296   -1.1993    0.1442 H       1  UNL1        0.0358
     16 H           4.8296   -0.1541   -1.2560 H       1  UNL1        0.0358
     17 H           3.0564   -2.9805   -2.2757 H       1  UNL1        0.1449
     18 H           4.3525   -3.8684   -2.9385 H       1  UNL1        0.1449
@<TRIPOS>BOND
     1     1     2    1
     2     2     3    1
     3     3     4    1
     4     4     5    1
     5     5     6   am
     6     5     7    2
     7     1     8    1
     8     1     9    1
     9     1    10    1
    10     2    11    1
    11     2    12    1
    12     3    13    1
    13     3    14    1
    14     4    15    1
    15     4    16    1
    16     6    17    1
    17     6    18    1
