@<TRIPOS>MOLECULE
*****
 5 4 0 0 0
SMALL
GASTEIGER

@<TRIPOS>ATOM
      1 C           1.0672    0.0645   -0.0363 C.3     1  UNL1       -0.0776
      2 H           2.1372    0.0645   -0.0363 H       1  UNL1        0.0194
      3 H           0.7106    0.8058   -0.7205 H       1  UNL1        0.0194
      4 H           0.7106    0.2865    0.9478 H       1  UNL1        0.0194
      5 H           0.7106   -0.8987   -0.3361 H       1  UNL1        0.0194
@<TRIPOS>BOND
     1     1     2    1
     2     1     3    1
     3     1     4    1
     4     1     5    1
