@<TRIPOS>MOLECULE
*****
 31 31 0 0 0
SMALL
GASTEIGER

@<TRIPOS>ATOM
      1 C           0.9072   -0.0107   -0.0356 C.3     1  UNL1       -0.0524
      2 C           2.4272   -0.0107   -0.0356 C.3     1  UNL1       -0.0042
      3 N           2.9172   -0.9035    1.0245 N.3     1  UNL1       -0.3053
      4 C           2.4272   -2.2679    0.7814 C.3     1  UNL1       -0.0128
      5 C           4.3872   -0.9035    1.0245 C.3     1  UNL1        0.0015
      6 C           4.8938   -1.8266    2.1206 C.3     1  UNL1       -0.0260
      7 C           6.4138   -1.8266    2.1206 C.3     1  UNL1       -0.0364
      8 C           6.9205   -2.7497    3.2168 C.3     1  UNL1       -0.0038
      9 N           8.3905   -2.7497    3.2168 N.3     1  UNL1       -0.3160
     10 C           8.8805   -3.6425    4.2768 C.3     1  UNL1       -0.0038
     11 C           4.3872   -3.2375    1.8692 C.3     1  UNL1       -0.0364
     12 H           0.5505    0.6391   -0.8073 H       1  UNL1        0.0242
     13 H           0.5505    0.3326    0.9129 H       1  UNL1        0.0242
     14 H           0.5505   -1.0039   -0.2126 H       1  UNL1        0.0242
     15 H           2.7839    0.9824    0.1413 H       1  UNL1        0.0424
     16 H           2.7839   -0.3541   -0.9842 H       1  UNL1        0.0424
     17 H           1.3572   -2.2679    0.7814 H       1  UNL1        0.0391
     18 H           2.7838   -2.9178    1.5530 H       1  UNL1        0.0391
     19 H           2.7838   -2.6113   -0.1672 H       1  UNL1        0.0391
     20 H           4.7438    0.0897    1.2014 H       1  UNL1        0.0429
     21 H           4.7438   -1.2468    0.0759 H       1  UNL1        0.0429
     22 H           4.5372   -1.4833    3.0692 H       1  UNL1        0.0314
     23 H           6.7705   -0.8335    2.2976 H       1  UNL1        0.0281
     24 H           6.7705   -2.1700    1.1720 H       1  UNL1        0.0281
     25 H           6.5638   -3.7429    3.0398 H       1  UNL1        0.0424
     26 H           6.5638   -2.4064    4.1653 H       1  UNL1        0.0424
     27 H           8.7305   -1.8030    3.3854 H       1  UNL1        0.1219
     28 H           9.0161   -3.3054    5.2833 H       1  UNL1        0.0424
     29 H           9.6557   -4.3579    4.4564 H       1  UNL1        0.0424
     30 H           3.5105   -3.5525    2.3957 H       1  UNL1        0.0281
     31 H           4.0681   -3.6881    0.9527 H       1  UNL1        0.0281
@<TRIPOS>BOND
     1     1     2    1
     2     2     3    1
     3     3     4    1
     4     3     5    1
     5     5     6    1
     6     6     7    1
     7     7     8    1
     8     8     9    1
     9     9    10    1
    10    10    11    1
    11     6    11    1
    12     1    12    1
    13     1    13    1
    14     1    14    1
    15     2    15    1
    16     2    16    1
    17     4    17    1
    18     4    18    1
    19     4    19    1
    20     5    20    1
    21     5    21    1
    22     6    22    1
    23     7    23    1
    24     7    24    1
    25     8    25    1
    26     8    26    1
    27     9    27    1
    28    10    28    1
    29    10    29    1
    30    11    30    1
    31    11    31    1
