@<TRIPOS>MOLECULE
*****
 9 8 0 0 0
SMALL
GASTEIGER

@<TRIPOS>ATOM
      1 C           0.9711    0.0693   -0.0660 C.3     1  UNL1       -0.0418
      2 C           2.4911    0.0693   -0.0660 C.3     1  UNL1        0.0414
      3 O           2.9644   -0.6184   -1.2146 O.3     1  UNL1       -0.3953
      4 H           0.6144    0.5876    0.7995 H       1  UNL1        0.0252
      5 H           0.6144   -0.9393   -0.0499 H       1  UNL1        0.0252
      6 H           0.6144    0.5598   -0.9476 H       1  UNL1        0.0252
      7 H           2.8477   -0.4211    0.8156 H       1  UNL1        0.0554
      8 H           2.8477    1.0780   -0.0820 H       1  UNL1        0.0554
      9 H           2.6411   -1.5328   -1.2001 H       1  UNL1        0.2094
@<TRIPOS>BOND
     1     1     2    1
     2     2     3    1
     3     1     4    1
     4     1     5    1
     5     1     6    1
     6     2     7    1
     7     2     8    1
     8     3     9    1
