@<TRIPOS>MOLECULE
*****
 12 11 0 0 0
SMALL
GASTEIGER

@<TRIPOS>ATOM
      1 C           1.0515    0.0672    0.0532 C.3     1  UNL1       -0.0416
      2 C           2.5715    0.0672    0.0532 C.3     1  UNL1        0.0445
      3 O           3.0449   -0.8092   -0.9589 O.3     1  UNL1       -0.3832
      4 C           4.4649   -0.8092   -0.9589 C.3     1  UNL1        0.0364
      5 H           0.6949    0.7276    0.8158 H       1  UNL1        0.0252
      6 H           0.6949   -0.9234    0.2438 H       1  UNL1        0.0252
      7 H           0.6949    0.3975   -0.9000 H       1  UNL1        0.0252
      8 H           2.9282   -0.2631    1.0064 H       1  UNL1        0.0557
      9 H           2.9282    1.0578   -0.1374 H       1  UNL1        0.0557
     10 H           4.8215   -1.4696   -1.7215 H       1  UNL1        0.0523
     11 H           4.8215   -1.1395   -0.0057 H       1  UNL1        0.0523
     12 H           4.8215    0.1815   -1.1495 H       1  UNL1        0.0523
@<TRIPOS>BOND
     1     1     2    1
     2     2     3    1
     3     3     4    1
     4     1     5    1
     5     1     6    1
     6     1     7    1
     7     2     8    1
     8     2     9    1
     9     4    10    1
    10     4    11    1
    11     4    12    1
