@<TRIPOS>MOLECULE
*****
 24 23 0 0 0
SMALL
GASTEIGER

@<TRIPOS>ATOM
      1 C           1.0230   -0.0760    0.0608 C.3     1  UNL1       -0.0652
      2 C           2.5430   -0.0760    0.0608 C.3     1  UNL1       -0.0545
      3 C           3.0497   -1.4739    0.3763 C.3     1  UNL1       -0.0376
      4 C           4.5697   -1.4739    0.3763 C.3     1  UNL1        0.0116
      5 N           5.0597   -2.8258    0.6815 N.am    1  UNL1       -0.3153
      6 C           6.5049   -3.0878    0.7406 C.2     1  UNL1        0.2128
      7 O           7.3308   -2.1455    0.5279 O.2     1  UNL1       -0.2758
      8 C           7.0116   -4.4857    1.0562 C.3     1  UNL1        0.0211
      9 C           8.5316   -4.4857    1.0562 C.3     1  UNL1       -0.0570
     10 H           0.6664    0.9081   -0.1613 H       1  UNL1        0.0230
     11 H           0.6664   -0.3756    1.0241 H       1  UNL1        0.0230
     12 H           0.6664   -0.7604   -0.6803 H       1  UNL1        0.0230
     13 H           2.8997    0.6084    0.8020 H       1  UNL1        0.0263
     14 H           2.8997    0.2237   -0.9025 H       1  UNL1        0.0263
     15 H           2.6930   -2.1583   -0.3648 H       1  UNL1        0.0280
     16 H           2.6930   -1.7735    1.3396 H       1  UNL1        0.0280
     17 H           4.9264   -0.7895    1.1175 H       1  UNL1        0.0462
     18 H           4.9264   -1.1742   -0.5869 H       1  UNL1        0.0462
     19 H           4.4199   -3.5557    0.8463 H       1  UNL1        0.1487
     20 H           6.6549   -5.1701    0.3150 H       1  UNL1        0.0356
     21 H           6.6549   -4.7854    2.0194 H       1  UNL1        0.0356
     22 H           8.8883   -4.1861    0.0929 H       1  UNL1        0.0234
     23 H           8.8883   -5.4698    1.2783 H       1  UNL1        0.0234
     24 H           8.8883   -3.8013    1.7973 H       1  UNL1        0.0234
@<TRIPOS>BOND
     1     1     2    1
     2     2     3    1
     3     3     4    1
     4     4     5    1
     5     5     6   am
     6     6     7    2
     7     6     8    1
     8     8     9    1
     9     1    10    1
    10     1    11    1
    11     1    12    1
    12     2    13    1
    13     2    14    1
    14     3    15    1
    15     3    16    1
    16     4    17    1
    17     4    18    1
    18     5    19    1
    19     8    20    1
    20     8    21    1
    21     9    22    1
    22     9    23    1
    23     9    24    1
