@<TRIPOS>MOLECULE
*****
 35 34 0 0 0
SMALL
GASTEIGER

@<TRIPOS>ATOM
      1 C           1.0969   -0.0053    0.0239 C.3     1  UNL1       -0.0648
      2 C           2.6169   -0.0053    0.0239 C.3     1  UNL1       -0.0476
      3 C           3.1236    1.4278    0.0152 C.3     1  UNL1        0.0237
      4 C           4.6436    1.4278    0.0152 C.2     1  UNL1        0.2131
      5 O           5.2791    0.3272    0.0219 O.2     1  UNL1       -0.2758
      6 N           5.3786    2.7008    0.0075 N.am    1  UNL1       -0.3131
      7 C           6.8486    2.7008    0.0075 C.3     1  UNL1        0.0350
      8 C           7.3553    4.1338   -0.0012 C.3     1  UNL1        0.0632
      9 O           8.7753    4.1338   -0.0012 O.3     1  UNL1       -0.3760
     10 C           9.2486    5.4726   -0.0093 C.3     1  UNL1        0.0711
     11 C          10.7686    5.4726   -0.0093 C.3     1  UNL1        0.0710
     12 O          11.2419    6.8114   -0.0174 O.3     1  UNL1       -0.3778
     13 C          12.6619    6.8114   -0.0174 C.3     1  UNL1        0.0449
     14 C          13.1686    8.2444   -0.0261 C.3     1  UNL1       -0.0416
     15 H           0.7403   -1.0141    0.0301 H       1  UNL1        0.0230
     16 H           0.7403    0.4938   -0.8527 H       1  UNL1        0.0230
     17 H           0.7403    0.5044    0.8945 H       1  UNL1        0.0230
     18 H           2.9736   -0.5150   -0.8466 H       1  UNL1        0.0267
     19 H           2.9736   -0.5044    0.9006 H       1  UNL1        0.0267
     20 H           2.7669    1.9375    0.8858 H       1  UNL1        0.0358
     21 H           2.7669    1.9269   -0.8614 H       1  UNL1        0.0358
     22 H           4.8864    3.5534    0.0023 H       1  UNL1        0.1488
     23 H           7.2053    2.1911   -0.8631 H       1  UNL1        0.0484
     24 H           7.2053    2.2017    0.8842 H       1  UNL1        0.0484
     25 H           6.9986    4.6435    0.8694 H       1  UNL1        0.0575
     26 H           6.9986    4.6329   -0.8779 H       1  UNL1        0.0575
     27 H           8.8919    5.9823    0.8613 H       1  UNL1        0.0583
     28 H           8.8919    5.9717   -0.8860 H       1  UNL1        0.0583
     29 H          11.1253    4.9629   -0.8799 H       1  UNL1        0.0583
     30 H          11.1253    4.9735    0.8674 H       1  UNL1        0.0583
     31 H          13.0186    6.3017   -0.8880 H       1  UNL1        0.0557
     32 H          13.0186    6.3123    0.8593 H       1  UNL1        0.0557
     33 H          12.8119    8.7435   -0.9028 H       1  UNL1        0.0252
     34 H          14.2386    8.2444   -0.0261 H       1  UNL1        0.0252
     35 H          12.8119    8.7541    0.8444 H       1  UNL1        0.0252
@<TRIPOS>BOND
     1     1     2    1
     2     2     3    1
     3     3     4    1
     4     4     5    2
     5     4     6   am
     6     6     7    1
     7     7     8    1
     8     8     9    1
     9     9    10    1
    10    10    11    1
    11    11    12    1
    12    12    13    1
    13    13    14    1
    14     1    15    1
    15     1    16    1
    16     1    17    1
    17     2    18    1
    18     2    19    1
    19     3    20    1
    20     3    21    1
    21     6    22    1
    22     7    23    1
    23     7    24    1
    24     8    25    1
    25     8    26    1
    26    10    27    1
    27    10    28    1
    28    11    29    1
    29    11    30    1
    30    13    31    1
    31    13    32    1
    32    14    33    1
    33    14    34    1
    34    14    35    1
