@<TRIPOS>MOLECULE
*****
 33 32 0 0 0
SMALL
GASTEIGER

@<TRIPOS>ATOM
      1 N           0.9033   -0.0198   -0.0160 N.3     1  UNL1       -0.3300
      2 C           2.3733   -0.0198   -0.0160 C.3     1  UNL1       -0.0069
      3 C           2.8799   -1.4489   -0.1215 C.3     1  UNL1       -0.0406
      4 C           4.3999   -1.4489   -0.1215 C.3     1  UNL1       -0.0519
      5 C           4.9066   -2.8781   -0.2270 C.3     1  UNL1       -0.0530
      6 C           6.4266   -2.8781   -0.2270 C.3     1  UNL1       -0.0531
      7 C           6.9333   -4.3073   -0.3326 C.3     1  UNL1       -0.0530
      8 C           8.4533   -4.3073   -0.3326 C.3     1  UNL1       -0.0519
      9 C           8.9599   -5.7365   -0.4381 C.3     1  UNL1       -0.0406
     10 C          10.4799   -5.7365   -0.4381 C.3     1  UNL1       -0.0069
     11 N          10.9699   -7.1187   -0.5402 N.3     1  UNL1       -0.3300
     12 H           0.5633    0.9393    0.0549 H       1  UNL1        0.1182
     13 H           0.5633   -0.5606    0.7792 H       1  UNL1        0.1182
     14 H           2.7299    0.4189    0.8925 H       1  UNL1        0.0422
     15 H           2.7299    0.5476   -0.8501 H       1  UNL1        0.0422
     16 H           2.5233   -1.8876   -1.0299 H       1  UNL1        0.0277
     17 H           2.5233   -2.0163    0.7126 H       1  UNL1        0.0277
     18 H           4.7566   -1.0102    0.7869 H       1  UNL1        0.0266
     19 H           4.7566   -0.8816   -0.9556 H       1  UNL1        0.0266
     20 H           4.5499   -3.3168   -1.1355 H       1  UNL1        0.0265
     21 H           4.5499   -3.4455    0.6071 H       1  UNL1        0.0265
     22 H           6.7833   -2.4394    0.6814 H       1  UNL1        0.0265
     23 H           6.7833   -2.3108   -1.0612 H       1  UNL1        0.0265
     24 H           6.5766   -4.7460   -1.2410 H       1  UNL1        0.0265
     25 H           6.5766   -4.8747    0.5016 H       1  UNL1        0.0265
     26 H           8.8099   -3.8686    0.5759 H       1  UNL1        0.0266
     27 H           8.8099   -3.7399   -1.1667 H       1  UNL1        0.0266
     28 H           8.6033   -6.1752   -1.3465 H       1  UNL1        0.0277
     29 H           8.6033   -6.3039    0.3960 H       1  UNL1        0.0277
     30 H          10.8366   -5.2978    0.4703 H       1  UNL1        0.0422
     31 H          10.8366   -5.1691   -1.2722 H       1  UNL1        0.0422
     32 H          10.6299   -7.6595    0.2550 H       1  UNL1        0.1182
     33 H          11.9899   -7.1187   -0.5402 H       1  UNL1        0.1182
@<TRIPOS>BOND
     1     1     2    1
     2     2     3    1
     3     3     4    1
     4     4     5    1
     5     5     6    1
     6     6     7    1
     7     7     8    1
     8     8     9    1
     9     9    10    1
    10    10    11    1
    11     1    12    1
    12     1    13    1
    13     2    14    1
    14     2    15    1
    15     3    16    1
    16     3    17    1
    17     4    18    1
    18     4    19    1
    19     5    20    1
    20     5    21    1
    21     6    22    1
    22     6    23    1
    23     7    24    1
    24     7    25    1
    25     8    26    1
    26     8    27    1
    27     9    28    1
    28     9    29    1
    29    10    30    1
    30    10    31    1
    31    11    32    1
    32    11    33    1
