@<TRIPOS>MOLECULE
*****
 26 25 0 0 0
SMALL
GASTEIGER

@<TRIPOS>ATOM
      1 C           1.0918    0.0174    0.0356 C.3     1  UNL1        0.0121
      2 C           2.6118    0.0174    0.0356 C.2     1  UNL1        0.2099
      3 O           3.2473   -1.0771   -0.0809 O.2     1  UNL1       -0.2761
      4 N           3.3468    1.2833    0.1705 N.am    1  UNL1       -0.3155
      5 C           4.8168    1.2833    0.1705 C.3     1  UNL1        0.0130
      6 C           5.3235    2.7083    0.3222 C.3     1  UNL1       -0.0218
      7 C           6.8435    2.7083    0.3222 C.3     1  UNL1        0.0131
      8 N           7.3335    4.0864    0.4690 N.am    1  UNL1       -0.3134
      9 C           8.7787    4.3535    0.4974 C.2     1  UNL1        0.2385
     10 O           9.6046    3.3930    0.3951 O.2     1  UNL1       -0.2733
     11 C           9.2854    5.7785    0.6492 C.3     1  UNL1        0.1202
     12 O          10.7054    5.7785    0.6492 O.3     1  UNL1       -0.3858
     13 H           0.7351   -0.9858   -0.0712 H       1  UNL1        0.0322
     14 H           0.7351    0.6114   -0.7797 H       1  UNL1        0.0322
     15 H           0.7351    0.4264    0.9578 H       1  UNL1        0.0322
     16 H           2.8546    2.1311    0.2607 H       1  UNL1        0.1487
     17 H           5.1735    0.8742   -0.7517 H       1  UNL1        0.0462
     18 H           5.1735    0.6892    0.9858 H       1  UNL1        0.0462
     19 H           4.9668    3.1173    1.2444 H       1  UNL1        0.0295
     20 H           4.9668    3.3024   -0.4931 H       1  UNL1        0.0295
     21 H           7.2001    2.2992   -0.5999 H       1  UNL1        0.0462
     22 H           7.2001    2.1142    1.1375 H       1  UNL1        0.0462
     23 H           6.6937    4.8305    0.5482 H       1  UNL1        0.1487
     24 H           8.9287    6.1876    1.5713 H       1  UNL1        0.0654
     25 H           8.9287    6.3726   -0.1662 H       1  UNL1        0.0654
     26 H          11.0287    5.2400    1.3883 H       1  UNL1        0.2100
@<TRIPOS>BOND
     1     1     2    1
     2     2     3    2
     3     2     4   am
     4     4     5    1
     5     5     6    1
     6     6     7    1
     7     7     8    1
     8     8     9   am
     9     9    10    2
    10     9    11    1
    11    11    12    1
    12     1    13    1
    13     1    14    1
    14     1    15    1
    15     4    16    1
    16     5    17    1
    17     5    18    1
    18     6    19    1
    19     6    20    1
    20     7    21    1
    21     7    22    1
    22     8    23    1
    23    11    24    1
    24    11    25    1
    25    12    26    1
