@<TRIPOS>MOLECULE
*****
 16 15 0 0 0
SMALL
GASTEIGER

@<TRIPOS>ATOM
      1 C           0.9923   -0.0005    0.0997 C.1     1  UNL1       -0.1192
      2 C           2.2961   -0.0005    0.0997 C.1     1  UNL1       -0.1056
      3 C           3.8161   -0.0005    0.0997 C.3     1  UNL1        0.0089
      4 C           4.3228   -0.9831    1.1428 C.3     1  UNL1       -0.0424
      5 C           5.8428   -0.9831    1.1428 C.3     1  UNL1       -0.0551
      6 C           6.3494   -1.9658    2.1859 C.3     1  UNL1       -0.0652
      7 H          -0.0017   -0.0005    0.0997 H       1  UNL1        0.1228
      8 H           4.1728    0.9813    0.3316 H       1  UNL1        0.0397
      9 H           4.1728   -0.2905   -0.8665 H       1  UNL1        0.0397
     10 H           3.9661   -1.9649    0.9108 H       1  UNL1        0.0274
     11 H           3.9661   -0.6931    2.1090 H       1  UNL1        0.0274
     12 H           6.1994   -0.0014    1.3747 H       1  UNL1        0.0263
     13 H           6.1994   -1.2732    0.1766 H       1  UNL1        0.0263
     14 H           5.9928   -1.6758    3.1521 H       1  UNL1        0.0230
     15 H           7.4194   -1.9658    2.1859 H       1  UNL1        0.0230
     16 H           5.9928   -2.9476    1.9539 H       1  UNL1        0.0230
@<TRIPOS>BOND
     1     1     2    3
     2     2     3    1
     3     3     4    1
     4     4     5    1
     5     5     6    1
     6     1     7    1
     7     3     8    1
     8     3     9    1
     9     4    10    1
    10     4    11    1
    11     5    12    1
    12     5    13    1
    13     6    14    1
    14     6    15    1
    15     6    16    1
