@<TRIPOS>MOLECULE
*****
 17 16 0 0 0
SMALL
GASTEIGER

@<TRIPOS>ATOM
      1 C           0.9017    0.0154   -0.0096 C.3     1  UNL1        0.0121
      2 C           2.4217    0.0154   -0.0096 C.2     1  UNL1        0.2100
      3 O           3.0571    0.9606   -0.5736 O.2     1  UNL1       -0.2761
      4 N           3.1567   -1.0778    0.6428 N.am    1  UNL1       -0.3143
      5 C           4.6267   -1.0778    0.6428 C.3     1  UNL1        0.0239
      6 C           5.1333   -2.3084    1.3772 C.3     1  UNL1        0.0087
      7 N           6.6033   -2.3084    1.3772 N.3     1  UNL1       -0.3285
      8 H           0.5450    0.8817   -0.5265 H       1  UNL1        0.0322
      9 H           0.5450    0.0300    0.9991 H       1  UNL1        0.0322
     10 H           0.5450   -0.8654   -0.5013 H       1  UNL1        0.0322
     11 H           2.6644   -1.8099    1.0797 H       1  UNL1        0.1487
     12 H           4.9833   -0.1969    1.1345 H       1  UNL1        0.0474
     13 H           4.9833   -1.0923   -0.3659 H       1  UNL1        0.0474
     14 H           4.7767   -3.1892    0.8854 H       1  UNL1        0.0437
     15 H           4.7767   -2.2938    2.3859 H       1  UNL1        0.0437
     16 H           6.9433   -2.3222    0.4156 H       1  UNL1        0.1183
     17 H           6.9433   -3.1342    1.8700 H       1  UNL1        0.1183
@<TRIPOS>BOND
     1     1     2    1
     2     2     3    2
     3     2     4   am
     4     4     5    1
     5     5     6    1
     6     6     7    1
     7     1     8    1
     8     1     9    1
     9     1    10    1
    10     4    11    1
    11     5    12    1
    12     5    13    1
    13     6    14    1
    14     6    15    1
    15     7    16    1
    16     7    17    1
