@<TRIPOS>MOLECULE
*****
 33 32 0 0 0
SMALL
GASTEIGER

@<TRIPOS>ATOM
      1 C           1.0824    0.0296    0.0484 C.3     1  UNL1       -0.0570
      2 C           2.6024    0.0296    0.0484 C.3     1  UNL1        0.0211
      3 C           3.1090   -0.4605   -1.2983 C.2     1  UNL1        0.2128
      4 O           2.2831   -0.7908   -2.2060 O.2     1  UNL1       -0.2758
      5 N           4.5543   -0.5523   -1.5507 N.am    1  UNL1       -0.3131
      6 C           5.0443   -1.0263   -2.8531 C.3     1  UNL1        0.0350
      7 C           6.5643   -1.0263   -2.8531 C.3     1  UNL1        0.0632
      8 O           7.0376   -1.4841   -4.1112 O.3     1  UNL1       -0.3760
      9 C           8.4576   -1.4841   -4.1112 C.3     1  UNL1        0.0711
     10 C           8.9642   -1.9742   -5.4578 C.3     1  UNL1        0.0711
     11 O          10.3842   -1.9742   -5.4578 O.3     1  UNL1       -0.3752
     12 C          10.8576   -2.4321   -6.7159 C.3     1  UNL1        0.0708
     13 C          12.3776   -2.4321   -6.7159 C.3     1  UNL1        0.0676
     14 O          12.8509   -2.8900   -7.9739 O.3     1  UNL1       -0.3927
     15 H           0.7257    0.3746    0.9963 H       1  UNL1        0.0234
     16 H           0.7257   -0.9638   -0.1268 H       1  UNL1        0.0234
     17 H           0.7257    0.6781   -0.7244 H       1  UNL1        0.0234
     18 H           2.9590   -0.6188    0.8211 H       1  UNL1        0.0356
     19 H           2.9590    1.0231    0.2236 H       1  UNL1        0.0356
     20 H           5.1940   -0.2964   -0.8475 H       1  UNL1        0.1488
     21 H           4.6876   -0.3778   -3.6259 H       1  UNL1        0.0484
     22 H           4.6876   -2.0198   -3.0283 H       1  UNL1        0.0484
     23 H           6.9209   -1.6748   -2.0803 H       1  UNL1        0.0575
     24 H           6.9209   -0.0328   -2.6779 H       1  UNL1        0.0575
     25 H           8.8143   -2.1326   -3.3384 H       1  UNL1        0.0583
     26 H           8.8143   -0.4907   -3.9359 H       1  UNL1        0.0583
     27 H           8.6076   -1.3258   -6.2306 H       1  UNL1        0.0583
     28 H           8.6076   -2.9677   -5.6330 H       1  UNL1        0.0583
     29 H          10.5009   -1.7836   -7.4886 H       1  UNL1        0.0583
     30 H          10.5009   -3.4256   -6.8911 H       1  UNL1        0.0583
     31 H          12.7342   -3.0806   -5.9431 H       1  UNL1        0.0580
     32 H          12.7342   -1.4386   -6.5407 H       1  UNL1        0.0580
     33 H          12.5276   -3.7906   -8.1328 H       1  UNL1        0.2095
@<TRIPOS>BOND
     1     1     2    1
     2     2     3    1
     3     3     4    2
     4     3     5   am
     5     5     6    1
     6     6     7    1
     7     7     8    1
     8     8     9    1
     9     9    10    1
    10    10    11    1
    11    11    12    1
    12    12    13    1
    13    13    14    1
    14     1    15    1
    15     1    16    1
    16     1    17    1
    17     2    18    1
    18     2    19    1
    19     5    20    1
    20     6    21    1
    21     6    22    1
    22     7    23    1
    23     7    24    1
    24     9    25    1
    25     9    26    1
    26    10    27    1
    27    10    28    1
    28    12    29    1
    29    12    30    1
    30    13    31    1
    31    13    32    1
    32    14    33    1
