@<TRIPOS>MOLECULE
*****
 34 34 0 0 0
SMALL
GASTEIGER

@<TRIPOS>ATOM
      1 N           0.9101   -0.0045   -0.0435 N.3     1  UNL1       -0.3283
      2 C           2.3801   -0.0045   -0.0435 C.3     1  UNL1        0.0128
      3 C           2.8867    1.2024   -0.8162 C.3     1  UNL1        0.0554
      4 N           4.3567    1.2024   -0.8162 N.ar    1  UNL1       -0.2502
      5 C           5.0531    2.2183   -1.4666 C.ar    1  UNL1        0.0510
      6 C           6.4933    2.2183   -1.4666 C.ar    1  UNL1        0.1083
      7 C           7.2533    1.1097   -0.7568 C.3     1  UNL1        0.0930
      8 O           6.3306    0.2007   -0.1749 O.3     1  UNL1       -0.3713
      9 C           7.0406   -0.8350    0.4882 C.3     1  UNL1        0.0715
     10 C           6.0528   -1.8080    1.1111 C.3     1  UNL1        0.0711
     11 O           6.7628   -2.8437    1.7742 O.3     1  UNL1       -0.3752
     12 C           5.8401   -3.7527    2.3561 C.3     1  UNL1        0.0708
     13 C           6.6001   -4.8613    3.0659 C.3     1  UNL1        0.0676
     14 O           5.6773   -5.7703    3.6478 O.3     1  UNL1       -0.3927
     15 N           7.1898    3.2342   -2.1169 N.ar    1  UNL1       -0.1322
     16 N           5.0295    0.2211   -0.1879 N.ar    1  UNL1       -0.0653
     17 H           0.5701   -0.8144    0.4750 H       1  UNL1        0.1183
     18 H           0.5701   -0.0486   -1.0042 H       1  UNL1        0.1183
     19 H           2.7367   -0.9003   -0.5073 H       1  UNL1        0.0440
     20 H           2.7367    0.0418    0.9642 H       1  UNL1        0.0440
     21 H           2.5301    2.0983   -0.3524 H       1  UNL1        0.0522
     22 H           2.5301    1.1562   -1.8239 H       1  UNL1        0.0522
     23 H           4.5371    2.9710   -1.9484 H       1  UNL1        0.0846
     24 H           7.8685    1.5330    0.0095 H       1  UNL1        0.0626
     25 H           7.8685    0.5909   -1.4620 H       1  UNL1        0.0626
     26 H           7.6557   -0.4117    1.2545 H       1  UNL1        0.0583
     27 H           7.6557   -1.3538   -0.2170 H       1  UNL1        0.0583
     28 H           5.4377   -2.2313    0.3448 H       1  UNL1        0.0583
     29 H           5.4377   -1.2892    1.8163 H       1  UNL1        0.0583
     30 H           5.2249   -4.1760    1.5898 H       1  UNL1        0.0583
     31 H           5.2249   -3.2339    3.0613 H       1  UNL1        0.0583
     32 H           7.2152   -4.4380    3.8322 H       1  UNL1        0.0580
     33 H           7.2152   -5.3801    2.3607 H       1  UNL1        0.0580
     34 H           5.1196   -5.2999    4.2871 H       1  UNL1        0.2095
@<TRIPOS>BOND
     1     1     2    1
     2     2     3    1
     3     3     4    1
     4     4     5   ar
     5     5     6   ar
     6     6     7    1
     7     7     8    1
     8     8     9    1
     9     9    10    1
    10    10    11    1
    11    11    12    1
    12    12    13    1
    13    13    14    1
    14     6    15   ar
    15    15    16   ar
    16     4    16   ar
    17     1    17    1
    18     1    18    1
    19     2    19    1
    20     2    20    1
    21     3    21    1
    22     3    22    1
    23     5    23    1
    24     7    24    1
    25     7    25    1
    26     9    26    1
    27     9    27    1
    28    10    28    1
    29    10    29    1
    30    12    30    1
    31    12    31    1
    32    13    32    1
    33    13    33    1
    34    14    34    1
