@<TRIPOS>MOLECULE
*****
 34 34 0 0 0
SMALL
GASTEIGER

@<TRIPOS>ATOM
      1 N           0.9520   -0.0629   -0.0612 N.3     1  UNL1       -0.3283
      2 C           2.4220   -0.0629   -0.0612 C.3     1  UNL1        0.0128
      3 C           2.9286   -0.2456    1.3602 C.3     1  UNL1        0.0554
      4 N           4.3986   -0.2456    1.3602 N.ar    1  UNL1       -0.2502
      5 C           5.0950   -0.3995    2.5566 C.ar    1  UNL1        0.0510
      6 C           6.5352   -0.3995    2.5566 C.ar    1  UNL1        0.1083
      7 C           7.2952   -0.2316    1.2510 C.3     1  UNL1        0.0930
      8 O           6.3725   -0.0939    0.1805 O.3     1  UNL1       -0.3713
      9 C           7.0825    0.0629   -1.0392 C.3     1  UNL1        0.0715
     10 C           6.0947    0.2102   -2.1851 C.3     1  UNL1        0.0711
     11 O           6.8047    0.3671   -3.4048 O.3     1  UNL1       -0.3752
     12 C           5.8820    0.5047   -4.4753 C.3     1  UNL1        0.0708
     13 C           6.6420    0.6726   -5.7809 C.3     1  UNL1        0.0676
     14 O           5.7192    0.8102   -6.8514 O.3     1  UNL1       -0.3927
     15 N           7.2317   -0.5533    3.7530 N.ar    1  UNL1       -0.1322
     16 N           5.0714   -0.0970    0.2045 N.ar    1  UNL1       -0.0653
     17 H           0.6120    0.0598   -1.0150 H       1  UNL1        0.1183
     18 H           0.6120    0.7018    0.5220 H       1  UNL1        0.1183
     19 H           2.7786    0.8680   -0.4500 H       1  UNL1        0.0440
     20 H           2.7786   -0.8651   -0.6729 H       1  UNL1        0.0440
     21 H           2.5720   -1.1765    1.7491 H       1  UNL1        0.0522
     22 H           2.5720    0.5566    1.9719 H       1  UNL1        0.0522
     23 H           4.5790   -0.5134    3.4430 H       1  UNL1        0.0846
     24 H           7.9104   -1.0909    1.0833 H       1  UNL1        0.0626
     25 H           7.9104    0.6422    1.3062 H       1  UNL1        0.0626
     26 H           7.6976   -0.7964   -1.2069 H       1  UNL1        0.0583
     27 H           7.6976    0.9366   -0.9840 H       1  UNL1        0.0583
     28 H           5.4796    1.0695   -2.0175 H       1  UNL1        0.0583
     29 H           5.4796   -0.6635   -2.2403 H       1  UNL1        0.0583
     30 H           5.2668    1.3640   -4.3077 H       1  UNL1        0.0583
     31 H           5.2668   -0.3690   -4.5305 H       1  UNL1        0.0583
     32 H           7.2571   -0.1867   -5.9486 H       1  UNL1        0.0580
     33 H           7.2571    1.5463   -5.7257 H       1  UNL1        0.0580
     34 H           5.1615    0.0181   -6.9015 H       1  UNL1        0.2095
@<TRIPOS>BOND
     1     1     2    1
     2     2     3    1
     3     3     4    1
     4     4     5   ar
     5     5     6   ar
     6     6     7    1
     7     7     8    1
     8     8     9    1
     9     9    10    1
    10    10    11    1
    11    11    12    1
    12    12    13    1
    13    13    14    1
    14     6    15   ar
    15    15    16   ar
    16     4    16   ar
    17     1    17    1
    18     1    18    1
    19     2    19    1
    20     2    20    1
    21     3    21    1
    22     3    22    1
    23     5    23    1
    24     7    24    1
    25     7    25    1
    26     9    26    1
    27     9    27    1
    28    10    28    1
    29    10    29    1
    30    12    30    1
    31    12    31    1
    32    13    32    1
    33    13    33    1
    34    14    34    1
