@<TRIPOS>MOLECULE
*****
 37 38 0 0 0
SMALL
GASTEIGER

@<TRIPOS>ATOM
      1 C           0.9474    0.0698    0.0485 C.3     1  UNL1       -0.0641
      2 C           2.4674    0.0698    0.0485 C.3     1  UNL1       -0.0431
      3 C           2.9741    0.5925   -1.2858 C.3     1  UNL1       -0.0012
      4 N           4.4441    0.5925   -1.2858 N.3     1  UNL1       -0.2994
      5 C           4.9341    1.0979   -2.5763 C.3     1  UNL1        0.0147
      6 C           6.4541    1.0979   -2.5763 C.3     1  UNL1        0.0250
      7 N           6.9441    1.6033   -3.8668 N.pl3   1  UNL1       -0.3275
      8 C           5.9888    2.0108   -4.9072 C.ar    1  UNL1        0.0298
      9 C           4.5728    1.9148   -4.6621 C.ar    1  UNL1       -0.0400
     10 C           3.6370    2.3140   -5.6814 C.ar    1  UNL1       -0.0498
     11 C           2.2210    2.2180   -5.4364 C.ar    1  UNL1        0.0143
     12 C           1.7143    1.6954   -4.1020 C.2     1  UNL1        0.1502
     13 O           2.5402    1.3431   -3.2025 O.2     1  UNL1       -0.2957
     14 C           1.2851    2.6172   -6.4556 C.ar    1  UNL1       -0.0498
     15 C           6.4689    2.5060   -6.1715 C.ar    1  UNL1       -0.0400
     16 C           8.3893    1.7013   -4.1169 C.3     1  UNL1        0.0250
     17 C           4.9341   -0.7778   -1.0783 C.3     1  UNL1        0.0147
     18 H           0.5907   -0.2981    0.9879 H       1  UNL1        0.0230
     19 H           0.5907   -0.5597   -0.7397 H       1  UNL1        0.0230
     20 H           0.5907    1.0673   -0.1025 H       1  UNL1        0.0230
     21 H           2.8241   -0.9276    0.1996 H       1  UNL1        0.0275
     22 H           2.8241    0.6994    0.8368 H       1  UNL1        0.0275
     23 H           2.6174    1.5899   -1.4369 H       1  UNL1        0.0426
     24 H           2.6174   -0.0371   -2.0741 H       1  UNL1        0.0426
     25 H           4.5774    2.0953   -2.7274 H       1  UNL1        0.0442
     26 H           4.5774    0.4684   -3.3646 H       1  UNL1        0.0442
     27 H           6.8107    0.1005   -2.4253 H       1  UNL1        0.0476
     28 H           6.8107    1.7274   -1.7881 H       1  UNL1        0.0476
     29 H           4.2289    1.5600   -3.7562 H       1  UNL1        0.0636
     30 H           3.9810    2.6688   -6.5874 H       1  UNL1        0.0625
     31 H           0.6997    1.6266   -3.9264 H       1  UNL1        0.1081
     32 H           0.3609    2.7847   -6.8832 H       1  UNL1        0.0625
     33 H           7.3286    2.7141   -6.7030 H       1  UNL1        0.0636
     34 H           8.9862    2.5199   -3.7728 H       1  UNL1        0.0476
     35 H           9.1425    1.5459   -4.8609 H       1  UNL1        0.0476
     36 H           5.2442   -1.0526   -0.0918 H       1  UNL1        0.0442
     37 H           4.4335   -1.7096   -1.2399 H       1  UNL1        0.0442
@<TRIPOS>BOND
     1     1     2    1
     2     2     3    1
     3     3     4    1
     4     4     5    1
     5     5     6    1
     6     6     7    1
     7     7     8    1
     8     8     9   ar
     9     9    10   ar
    10    10    11   ar
    11    11    12    1
    12    12    13    2
    13    11    14   ar
    14    14    15   ar
    15     8    15   ar
    16     7    16    1
    17    16    17    1
    18     4    17    1
    19     1    18    1
    20     1    19    1
    21     1    20    1
    22     2    21    1
    23     2    22    1
    24     3    23    1
    25     3    24    1
    26     5    25    1
    27     5    26    1
    28     6    27    1
    29     6    28    1
    30     9    29    1
    31    10    30    1
    32    12    31    1
    33    14    32    1
    34    15    33    1
    35    16    34    1
    36    16    35    1
    37    17    36    1
    38    17    37    1
