@<TRIPOS>MOLECULE
*****
 17 16 0 0 0
SMALL
GASTEIGER

@<TRIPOS>ATOM
      1 C           1.0159   -0.0987   -0.0002 C.3     1  UNL1       -0.0653
      2 C           2.5359   -0.0987   -0.0002 C.3     1  UNL1       -0.0559
      3 C           3.0426    0.1541    1.4104 C.3     1  UNL1       -0.0536
      4 C           4.5626    0.1541    1.4104 C.3     1  UNL1       -0.0559
      5 C           5.0692    0.4069    2.8210 C.3     1  UNL1       -0.0653
      6 H           0.6593   -0.2767   -0.9932 H       1  UNL1        0.0230
      7 H           0.6593    0.8502    0.3421 H       1  UNL1        0.0230
      8 H           0.6593   -0.8697    0.6504 H       1  UNL1        0.0230
      9 H           2.8926    0.6722   -0.6509 H       1  UNL1        0.0263
     10 H           2.8926   -1.0477   -0.3426 H       1  UNL1        0.0263
     11 H           2.6859   -0.6169    2.0610 H       1  UNL1        0.0265
     12 H           2.6859    1.1030    1.7527 H       1  UNL1        0.0265
     13 H           4.9193    0.9251    0.7597 H       1  UNL1        0.0263
     14 H           4.9193   -0.7948    1.0680 H       1  UNL1        0.0263
     15 H           4.7126    1.3558    3.1633 H       1  UNL1        0.0230
     16 H           6.1392    0.4069    2.8210 H       1  UNL1        0.0230
     17 H           4.7126   -0.3641    3.4716 H       1  UNL1        0.0230
@<TRIPOS>BOND
     1     1     2    1
     2     2     3    1
     3     3     4    1
     4     4     5    1
     5     1     6    1
     6     1     7    1
     7     1     8    1
     8     2     9    1
     9     2    10    1
    10     3    11    1
    11     3    12    1
    12     4    13    1
    13     4    14    1
    14     5    15    1
    15     5    16    1
    16     5    17    1
