@<TRIPOS>MOLECULE
*****
 51 50 0 0 0
SMALL
GASTEIGER

@<TRIPOS>ATOM
      1 C           0.9036   -0.0049   -0.0260 C.3     1  UNL1        0.0121
      2 C           2.4236   -0.0049   -0.0260 C.2     1  UNL1        0.2100
      3 O           3.0590   -1.1052   -0.0540 O.2     1  UNL1       -0.2761
      4 N           3.1586    1.2678    0.0064 N.am    1  UNL1       -0.3133
      5 C           4.6286    1.2678    0.0064 C.3     1  UNL1        0.0350
      6 C           5.1352    2.7004    0.0429 C.3     1  UNL1        0.0632
      7 O           6.5552    2.7004    0.0429 O.3     1  UNL1       -0.3760
      8 C           7.0285    4.0387    0.0770 C.3     1  UNL1        0.0711
      9 C           8.5485    4.0387    0.0770 C.3     1  UNL1        0.0711
     10 O           9.0219    5.3771    0.1110 O.3     1  UNL1       -0.3752
     11 C          10.4419    5.3771    0.1110 C.3     1  UNL1        0.0711
     12 C          10.9485    6.8097    0.1475 C.3     1  UNL1        0.0711
     13 O          12.3685    6.8097    0.1475 O.3     1  UNL1       -0.3752
     14 C          12.8419    8.1481    0.1815 C.3     1  UNL1        0.0711
     15 C          14.3619    8.1481    0.1815 C.3     1  UNL1        0.0711
     16 O          14.8352    9.4864    0.2156 O.3     1  UNL1       -0.3752
     17 C          16.2552    9.4864    0.2156 C.3     1  UNL1        0.0711
     18 C          16.7618   10.9190    0.2521 C.3     1  UNL1        0.0711
     19 O          18.1818   10.9190    0.2521 O.3     1  UNL1       -0.3752
     20 C          18.6552   12.2574    0.2861 C.3     1  UNL1        0.0708
     21 C          20.1752   12.2574    0.2861 C.3     1  UNL1        0.0676
     22 O          20.6485   13.5957    0.3202 O.3     1  UNL1       -0.3927
     23 H           0.5469   -1.0134   -0.0516 H       1  UNL1        0.0322
     24 H           0.5469    0.5216   -0.8865 H       1  UNL1        0.0322
     25 H           0.5469    0.4771    0.8602 H       1  UNL1        0.0322
     26 H           2.6663    2.1201    0.0281 H       1  UNL1        0.1488
     27 H           4.9852    0.7858   -0.8798 H       1  UNL1        0.0484
     28 H           4.9852    0.7413    0.8670 H       1  UNL1        0.0484
     29 H           4.7785    3.1824    0.9291 H       1  UNL1        0.0575
     30 H           4.7785    3.2268   -0.8176 H       1  UNL1        0.0575
     31 H           6.6719    4.5207    0.9632 H       1  UNL1        0.0583
     32 H           6.6719    4.5652   -0.7836 H       1  UNL1        0.0583
     33 H           8.9052    3.5567   -0.8093 H       1  UNL1        0.0583
     34 H           8.9052    3.5123    0.9375 H       1  UNL1        0.0583
     35 H          10.7985    4.8951   -0.7752 H       1  UNL1        0.0583
     36 H          10.7985    4.8506    0.9715 H       1  UNL1        0.0583
     37 H          10.5919    7.2917    1.0337 H       1  UNL1        0.0583
     38 H          10.5919    7.3362   -0.7131 H       1  UNL1        0.0583
     39 H          12.4852    8.6301    1.0677 H       1  UNL1        0.0583
     40 H          12.4852    8.6745   -0.6790 H       1  UNL1        0.0583
     41 H          14.7185    7.6660   -0.7047 H       1  UNL1        0.0583
     42 H          14.7185    7.6216    1.0421 H       1  UNL1        0.0583
     43 H          16.6119    9.0044   -0.6706 H       1  UNL1        0.0583
     44 H          16.6119    8.9599    1.0761 H       1  UNL1        0.0583
     45 H          16.4052   11.4010    1.1383 H       1  UNL1        0.0583
     46 H          16.4052   11.4455   -0.6085 H       1  UNL1        0.0583
     47 H          18.2985   12.7394    1.1723 H       1  UNL1        0.0583
     48 H          18.2985   12.7838   -0.5744 H       1  UNL1        0.0583
     49 H          20.5318   11.7754   -0.6001 H       1  UNL1        0.0580
     50 H          20.5318   11.7309    1.1467 H       1  UNL1        0.0580
     51 H          20.3252   14.0730   -0.4599 H       1  UNL1        0.2095
@<TRIPOS>BOND
     1     1     2    1
     2     2     3    2
     3     2     4   am
     4     4     5    1
     5     5     6    1
     6     6     7    1
     7     7     8    1
     8     8     9    1
     9     9    10    1
    10    10    11    1
    11    11    12    1
    12    12    13    1
    13    13    14    1
    14    14    15    1
    15    15    16    1
    16    16    17    1
    17    17    18    1
    18    18    19    1
    19    19    20    1
    20    20    21    1
    21    21    22    1
    22     1    23    1
    23     1    24    1
    24     1    25    1
    25     4    26    1
    26     5    27    1
    27     5    28    1
    28     6    29    1
    29     6    30    1
    30     8    31    1
    31     8    32    1
    32     9    33    1
    33     9    34    1
    34    11    35    1
    35    11    36    1
    36    12    37    1
    37    12    38    1
    38    14    39    1
    39    14    40    1
    40    15    41    1
    41    15    42    1
    42    17    43    1
    43    17    44    1
    44    18    45    1
    45    18    46    1
    46    20    47    1
    47    20    48    1
    48    21    49    1
    49    21    50    1
    50    22    51    1
