@<TRIPOS>MOLECULE
*****
 67 69 0 0 0
SMALL
GASTEIGER

@<TRIPOS>ATOM
      1 C           1.0414    0.0878    0.0238 C.3     1  UNL1       -0.0652
      2 C           2.5614    0.0878    0.0238 C.3     1  UNL1       -0.0545
      3 C           3.0681    0.7084   -1.2680 C.3     1  UNL1       -0.0373
      4 C           4.5881    0.7084   -1.2680 C.3     1  UNL1        0.0165
      5 N           5.0781    1.3085   -2.5172 N.am    1  UNL1       -0.2811
      6 C           4.1228    1.7924   -3.5243 C.3     1  UNL1        0.0412
      7 C           2.7044    1.5559   -3.0321 C.ar    1  UNL1       -0.0301
      8 C           1.5842    1.9478   -3.8480 C.ar    1  UNL1       -0.0571
      9 C           0.2402    1.7238   -3.3815 C.ar    1  UNL1       -0.0615
     10 C          -0.8800    2.1157   -4.1975 C.ar    1  UNL1       -0.0617
     11 C          -2.2240    1.8917   -3.7310 C.ar    1  UNL1       -0.0615
     12 C           2.4805    0.9398   -1.7497 C.ar    1  UNL1       -0.0571
     13 C           6.5234    1.4249   -2.7593 C.2     1  UNL1        0.3067
     14 O           7.3492    1.0066   -1.8886 O.2     1  UNL1       -0.2523
     15 N           7.0133    2.0250   -4.0086 N.am    1  UNL1       -0.2693
     16 C           8.4586    2.1413   -4.2507 C.ar    1  UNL1        0.0350
     17 C           8.9387    2.7293   -5.4747 C.ar    1  UNL1       -0.0370
     18 C          10.3546    2.8432   -5.7119 C.ar    1  UNL1       -0.0182
     19 C          10.8347    3.4312   -6.9358 C.ar    1  UNL1        0.1206
     20 O           9.9119    3.8986   -7.9087 O.3     1  UNL1       -0.4919
     21 C           8.5158    3.7862   -7.6748 C.3     1  UNL1        0.0913
     22 C           7.7558    4.3562   -8.8613 C.3     1  UNL1        0.0010
     23 C           6.2614    4.2360   -8.6110 C.3     1  UNL1        0.0463
     24 N           5.5264    4.7872   -9.7585 N.ar    1  UNL1       -0.2513
     25 C           4.1336    4.7872   -9.7585 C.ar    1  UNL1        0.0487
     26 C           3.4135    5.3273  -10.8827 C.ar    1  UNL1        0.0840
     27 C           4.1735    5.8973  -12.0693 C.3     1  UNL1        0.0052
     28 C           5.6679    5.7770  -11.8189 C.3     1  UNL1       -0.0014
     29 N           6.4029    6.3283  -12.9664 N.3     1  UNL1       -0.3296
     30 N           2.0207    5.3273  -10.8827 N.ar    1  UNL1       -0.1345
     31 N           6.1991    5.2918  -10.8088 N.ar    1  UNL1       -0.0655
     32 C          12.2506    3.5452   -7.1730 C.ar    1  UNL1       -0.0182
     33 C           9.3945    1.6673   -3.2640 C.ar    1  UNL1       -0.0370
     34 H           0.6848   -0.3490    0.9331 H       1  UNL1        0.0230
     35 H           0.6848   -0.4812   -0.8092 H       1  UNL1        0.0230
     36 H           0.6848    1.0938   -0.0526 H       1  UNL1        0.0230
     37 H           2.9181   -0.9181    0.1001 H       1  UNL1        0.0263
     38 H           2.9181    0.6569    0.8568 H       1  UNL1        0.0263
     39 H           2.7114    1.7143   -1.3443 H       1  UNL1        0.0280
     40 H           2.7114    0.1393   -2.1009 H       1  UNL1        0.0280
     41 H           4.9448   -0.2975   -1.1916 H       1  UNL1        0.0465
     42 H           4.9448    1.2775   -0.4350 H       1  UNL1        0.0465
     43 H           4.2745    1.2642   -4.4425 H       1  UNL1        0.0514
     44 H           4.2745    2.8392   -3.6859 H       1  UNL1        0.0514
     45 H           1.7446    2.3893   -4.7669 H       1  UNL1        0.0621
     46 H           0.0798    1.2823   -2.4626 H       1  UNL1        0.0618
     47 H          -0.7196    2.5572   -5.1164 H       1  UNL1        0.0618
     48 H          -3.2554    1.9072   -3.7634 H       1  UNL1        0.0618
     49 H           2.9651    0.5453   -0.9284 H       1  UNL1        0.0621
     50 H           6.3736    2.3490   -4.6831 H       1  UNL1        0.1564
     51 H           8.2680    3.0689   -6.1817 H       1  UNL1        0.0637
     52 H          11.0252    2.5036   -5.0048 H       1  UNL1        0.0655
     53 H           8.2573    4.3308   -6.7907 H       1  UNL1        0.0697
     54 H           8.2573    2.7558   -7.5473 H       1  UNL1        0.0697
     55 H           8.0143    3.8117   -9.7454 H       1  UNL1        0.0316
     56 H           8.0143    5.3867   -8.9888 H       1  UNL1        0.0316
     57 H           6.0029    4.7805   -7.7269 H       1  UNL1        0.0510
     58 H           6.0029    3.2055   -8.4835 H       1  UNL1        0.0510
     59 H           3.6176    4.4002   -8.9529 H       1  UNL1        0.0845
     60 H           3.9150    6.9278  -12.1967 H       1  UNL1        0.0342
     61 H           3.9150    5.3528  -12.9533 H       1  UNL1        0.0342
     62 H           5.9264    4.7466  -11.6915 H       1  UNL1        0.0425
     63 H           5.9264    6.3216  -10.9348 H       1  UNL1        0.0425
     64 H           6.1565    5.8092  -13.8092 H       1  UNL1        0.1182
     65 H           7.4057    6.2476  -12.7984 H       1  UNL1        0.1182
     66 H          13.1104    3.7923   -7.6875 H       1  UNL1        0.0655
     67 H           9.4589    1.2213   -2.3356 H       1  UNL1        0.0637
@<TRIPOS>BOND
     1     1     2    1
     2     2     3    1
     3     3     4    1
     4     4     5    1
     5     5     6    1
     6     6     7    1
     7     7     8   ar
     8     8     9   ar
     9     9    10   ar
    10    10    11   ar
    11    11    12   ar
    12     7    12   ar
    13     5    13   am
    14    13    14    2
    15    13    15   am
    16    15    16    1
    17    16    17   ar
    18    17    18   ar
    19    18    19   ar
    20    19    20    1
    21    20    21    1
    22    21    22    1
    23    22    23    1
    24    23    24    1
    25    24    25   ar
    26    25    26   ar
    27    26    27    1
    28    27    28    1
    29    28    29    1
    30    26    30   ar
    31    30    31   ar
    32    24    31   ar
    33    19    32   ar
    34    32    33   ar
    35    16    33   ar
    36     1    34    1
    37     1    35    1
    38     1    36    1
    39     2    37    1
    40     2    38    1
    41     3    39    1
    42     3    40    1
    43     4    41    1
    44     4    42    1
    45     6    43    1
    46     6    44    1
    47     8    45    1
    48     9    46    1
    49    10    47    1
    50    11    48    1
    51    12    49    1
    52    15    50    1
    53    17    51    1
    54    18    52    1
    55    21    53    1
    56    21    54    1
    57    22    55    1
    58    22    56    1
    59    23    57    1
    60    23    58    1
    61    25    59    1
    62    27    60    1
    63    27    61    1
    64    28    62    1
    65    28    63    1
    66    29    64    1
    67    29    65    1
    68    32    66    1
    69    33    67    1
