@<TRIPOS>MOLECULE
*****
 18 17 0 0 0
SMALL
GASTEIGER

@<TRIPOS>ATOM
      1 N           0.9507    0.0593   -0.0636 N.3     1  UNL1       -0.3279
      2 C           2.4207    0.0593   -0.0636 C.3     1  UNL1        0.0166
      3 C           2.9274    0.3793    1.3332 C.3     1  UNL1        0.0600
      4 O           4.3474    0.3793    1.3332 O.3     1  UNL1       -0.3763
      5 C           4.8207    0.6783    2.6382 C.3     1  UNL1        0.0708
      6 C           6.3407    0.6783    2.6382 C.3     1  UNL1        0.0676
      7 O           6.8140    0.9772    3.9432 O.3     1  UNL1       -0.3927
      8 H           0.6107   -0.1554   -1.0010 H       1  UNL1        0.1183
      9 H           0.6107    0.9785    0.2191 H       1  UNL1        0.1183
     10 H           2.7774    0.7983   -0.7504 H       1  UNL1        0.0444
     11 H           2.7774   -0.9049   -0.3602 H       1  UNL1        0.0444
     12 H           2.5707   -0.3596    2.0200 H       1  UNL1        0.0572
     13 H           2.5707    1.3436    1.6298 H       1  UNL1        0.0572
     14 H           4.4640   -0.0607    3.3250 H       1  UNL1        0.0583
     15 H           4.4640    1.6425    2.9348 H       1  UNL1        0.0583
     16 H           6.6974    1.4172    1.9515 H       1  UNL1        0.0580
     17 H           6.6974   -0.2859    2.3416 H       1  UNL1        0.0580
     18 H           6.4907    1.8513    4.2121 H       1  UNL1        0.2095
@<TRIPOS>BOND
     1     1     2    1
     2     2     3    1
     3     3     4    1
     4     4     5    1
     5     5     6    1
     6     6     7    1
     7     1     8    1
     8     1     9    1
     9     2    10    1
    10     2    11    1
    11     3    12    1
    12     3    13    1
    13     5    14    1
    14     5    15    1
    15     6    16    1
    16     6    17    1
    17     7    18    1
