@<TRIPOS>MOLECULE
*****
 44 44 0 0 0
SMALL
GASTEIGER

@<TRIPOS>ATOM
      1 N           1.0602   -0.0309    0.0736 N.3     1  UNL1       -0.3300
      2 C           2.5302   -0.0309    0.0736 C.3     1  UNL1       -0.0069
      3 C           3.0369   -0.3006    1.4811 C.3     1  UNL1       -0.0406
      4 C           4.5569   -0.3006    1.4811 C.3     1  UNL1       -0.0519
      5 C           5.0635   -0.5704    2.8885 C.3     1  UNL1       -0.0530
      6 C           6.5835   -0.5704    2.8885 C.3     1  UNL1       -0.0514
      7 C           7.0902   -0.8401    4.2960 C.3     1  UNL1       -0.0333
      8 C           8.6102   -0.8401    4.2960 C.3     1  UNL1        0.0432
      9 N           9.1002   -1.1009    5.6572 N.ar    1  UNL1       -0.2515
     10 C          10.4696   -1.1488    5.9071 C.ar    1  UNL1        0.0486
     11 C          10.9496   -1.4044    7.2407 C.ar    1  UNL1        0.0828
     12 C           9.9619   -1.6218    8.3754 C.3     1  UNL1       -0.0071
     13 C           8.5434   -1.5190    7.8390 C.3     1  UNL1       -0.0455
     14 C           7.5557   -1.7364    8.9736 C.3     1  UNL1       -0.0294
     15 C           6.1372   -1.6337    8.4372 C.3     1  UNL1        0.0442
     16 O           5.2144   -1.8368    9.4973 O.3     1  UNL1       -0.3950
     17 N          12.3190   -1.4523    7.4907 N.ar    1  UNL1       -0.1345
     18 N           8.2259   -1.2934    6.6615 N.ar    1  UNL1       -0.0655
     19 H           0.7202    0.1501   -0.8709 H       1  UNL1        0.1182
     20 H           0.7202    0.6965    0.7026 H       1  UNL1        0.1182
     21 H           2.8869    0.9220   -0.2574 H       1  UNL1        0.0422
     22 H           2.8869   -0.7940   -0.5862 H       1  UNL1        0.0422
     23 H           2.6802   -1.2536    1.8120 H       1  UNL1        0.0277
     24 H           2.6802    0.4625    2.1409 H       1  UNL1        0.0277
     25 H           4.9135    0.6523    1.1501 H       1  UNL1        0.0266
     26 H           4.9136   -1.0637    0.8212 H       1  UNL1        0.0266
     27 H           4.7069   -1.5233    3.2195 H       1  UNL1        0.0265
     28 H           4.7069    0.1928    3.5483 H       1  UNL1        0.0265
     29 H           6.9402    0.3826    2.5576 H       1  UNL1        0.0266
     30 H           6.9402   -1.3335    2.2287 H       1  UNL1        0.0266
     31 H           6.7335   -1.7930    4.6269 H       1  UNL1        0.0283
     32 H           6.7335   -0.0770    4.9558 H       1  UNL1        0.0283
     33 H           8.9669    0.1129    3.9650 H       1  UNL1        0.0509
     34 H           8.9669   -1.6032    3.6362 H       1  UNL1        0.0509
     35 H          11.1402   -1.0012    5.1367 H       1  UNL1        0.0845
     36 H          10.1135   -0.8765    9.1280 H       1  UNL1        0.0329
     37 H          10.1135   -2.5926    8.7991 H       1  UNL1        0.0329
     38 H           8.3918   -2.2643    7.0864 H       1  UNL1        0.0270
     39 H           8.3918   -0.5483    7.4152 H       1  UNL1        0.0270
     40 H           7.7073   -0.9911    9.7262 H       1  UNL1        0.0287
     41 H           7.7073   -2.7072    9.3974 H       1  UNL1        0.0287
     42 H           5.9856   -2.3790    7.6846 H       1  UNL1        0.0557
     43 H           5.9856   -0.6629    8.0135 H       1  UNL1        0.0557
     44 H           5.3518   -2.7168    9.8814 H       1  UNL1        0.2094
@<TRIPOS>BOND
     1     1     2    1
     2     2     3    1
     3     3     4    1
     4     4     5    1
     5     5     6    1
     6     6     7    1
     7     7     8    1
     8     8     9    1
     9     9    10   ar
    10    10    11   ar
    11    11    12    1
    12    12    13    1
    13    13    14    1
    14    14    15    1
    15    15    16    1
    16    11    17   ar
    17    17    18   ar
    18     9    18   ar
    19     1    19    1
    20     1    20    1
    21     2    21    1
    22     2    22    1
    23     3    23    1
    24     3    24    1
    25     4    25    1
    26     4    26    1
    27     5    27    1
    28     5    28    1
    29     6    29    1
    30     6    30    1
    31     7    31    1
    32     7    32    1
    33     8    33    1
    34     8    34    1
    35    10    35    1
    36    12    36    1
    37    12    37    1
    38    13    38    1
    39    13    39    1
    40    14    40    1
    41    14    41    1
    42    15    42    1
    43    15    43    1
    44    16    44    1
