@<TRIPOS>MOLECULE
*****
 16 15 0 0 0
SMALL
GASTEIGER

@<TRIPOS>ATOM
      1 C           1.0003    0.0794    0.0608 C.3     1  UNL1       -0.0416
      2 C           2.5203    0.0794    0.0608 C.3     1  UNL1        0.0449
      3 O           2.9937    1.1790   -0.7030 O.3     1  UNL1       -0.3778
      4 C           4.4137    1.1790   -0.7030 C.3     1  UNL1        0.0707
      5 C           4.9203    2.3560   -1.5205 C.3     1  UNL1        0.0676
      6 O           6.3403    2.3560   -1.5205 O.3     1  UNL1       -0.3927
      7 H           0.6437   -0.7491    0.6363 H       1  UNL1        0.0252
      8 H           0.6437   -0.0047   -0.9445 H       1  UNL1        0.0252
      9 H           0.6437    0.9921    0.4906 H       1  UNL1        0.0252
     10 H           2.8770   -0.8333   -0.3690 H       1  UNL1        0.0557
     11 H           2.8770    0.1635    1.0661 H       1  UNL1        0.0557
     12 H           4.7703    0.2663   -1.1328 H       1  UNL1        0.0583
     13 H           4.7703    1.2631    0.3023 H       1  UNL1        0.0583
     14 H           4.5637    3.2686   -1.0907 H       1  UNL1        0.0580
     15 H           4.5637    2.2719   -2.5258 H       1  UNL1        0.0580
     16 H           6.6637    2.4322   -0.6091 H       1  UNL1        0.2095
@<TRIPOS>BOND
     1     1     2    1
     2     2     3    1
     3     3     4    1
     4     4     5    1
     5     5     6    1
     6     1     7    1
     7     1     8    1
     8     1     9    1
     9     2    10    1
    10     2    11    1
    11     4    12    1
    12     4    13    1
    13     5    14    1
    14     5    15    1
    15     6    16    1
