@<TRIPOS>MOLECULE
*****
 22 21 0 0 0
SMALL
GASTEIGER

@<TRIPOS>ATOM
      1 C           1.0602   -0.0597   -0.0531 C.3     1  UNL1       -0.0653
      2 C           2.5802   -0.0597   -0.0531 C.3     1  UNL1       -0.0559
      3 C           3.0868   -0.1384    1.3778 C.3     1  UNL1       -0.0533
      4 C           4.6068   -0.1384    1.3778 C.3     1  UNL1       -0.0519
      5 C           5.1135   -0.2172    2.8087 C.3     1  UNL1       -0.0406
      6 C           6.6335   -0.2172    2.8087 C.3     1  UNL1       -0.0069
      7 N           7.1235   -0.2934    4.1925 N.3     1  UNL1       -0.3300
      8 H           0.7035   -0.0042   -1.0604 H       1  UNL1        0.0230
      9 H           0.7035    0.7850    0.4985 H       1  UNL1        0.0230
     10 H           0.7035   -0.9597    0.4025 H       1  UNL1        0.0230
     11 H           2.9368    0.8404   -0.5087 H       1  UNL1        0.0263
     12 H           2.9368   -0.9043   -0.6048 H       1  UNL1        0.0263
     13 H           2.7302   -1.0385    1.8334 H       1  UNL1        0.0265
     14 H           2.7302    0.7062    1.9295 H       1  UNL1        0.0265
     15 H           4.9635    0.7616    0.9222 H       1  UNL1        0.0266
     16 H           4.9635   -0.9830    0.8261 H       1  UNL1        0.0266
     17 H           4.7568   -1.1173    3.2643 H       1  UNL1        0.0277
     18 H           4.7568    0.6274    3.3604 H       1  UNL1        0.0277
     19 H           6.9902    0.6829    2.3531 H       1  UNL1        0.0422
     20 H           6.9902   -1.0618    2.2570 H       1  UNL1        0.0422
     21 H           6.7835    0.5118    4.7184 H       1  UNL1        0.1182
     22 H           8.1435   -0.2934    4.1925 H       1  UNL1        0.1182
@<TRIPOS>BOND
     1     1     2    1
     2     2     3    1
     3     3     4    1
     4     4     5    1
     5     5     6    1
     6     6     7    1
     7     1     8    1
     8     1     9    1
     9     1    10    1
    10     2    11    1
    11     2    12    1
    12     3    13    1
    13     3    14    1
    14     4    15    1
    15     4    16    1
    16     5    17    1
    17     5    18    1
    18     6    19    1
    19     6    20    1
    20     7    21    1
    21     7    22    1
