@<TRIPOS>MOLECULE
*****
 16 15 0 0 0
SMALL
GASTEIGER

@<TRIPOS>ATOM
      1 C           0.9538   -0.0663   -0.0589 C.3     1  UNL1        0.0364
      2 O           2.3738   -0.0663   -0.0589 O.3     1  UNL1       -0.3829
      3 C           2.8471   -0.8255   -1.1616 C.3     1  UNL1        0.0494
      4 C           4.3671   -0.8255   -1.1616 C.3     1  UNL1       -0.0062
      5 C           4.8738   -1.6381   -2.3420 C.3     1  UNL1        0.0463
      6 O           6.2938   -1.6381   -2.3420 O.3     1  UNL1       -0.3949
      7 H           0.5971    0.5058    0.7720 H       1  UNL1        0.0523
      8 H           0.5971   -1.0719    0.0211 H       1  UNL1        0.0523
      9 H           0.5971    0.3673   -0.9698 H       1  UNL1        0.0523
     10 H           2.4905   -0.3919   -2.0725 H       1  UNL1        0.0560
     11 H           2.4905   -1.8311   -1.0817 H       1  UNL1        0.0560
     12 H           4.7238   -1.2591   -0.2507 H       1  UNL1        0.0309
     13 H           4.7238    0.1801   -1.2416 H       1  UNL1        0.0309
     14 H           4.5171   -1.2045   -3.2529 H       1  UNL1        0.0558
     15 H           4.5171   -2.6438   -2.2621 H       1  UNL1        0.0558
     16 H           6.6171   -0.7265   -2.4145 H       1  UNL1        0.2094
@<TRIPOS>BOND
     1     1     2    1
     2     2     3    1
     3     3     4    1
     4     4     5    1
     5     5     6    1
     6     1     7    1
     7     1     8    1
     8     1     9    1
     9     3    10    1
    10     3    11    1
    11     4    12    1
    12     4    13    1
    13     5    14    1
    14     5    15    1
    15     6    16    1
