@<TRIPOS>MOLECULE
*****
 25 26 0 0 0
SMALL
GASTEIGER

@<TRIPOS>ATOM
      1 C           1.0373    0.0171   -0.0912 C.3     1  UNL1        0.0087
      2 C           2.5573    0.0171   -0.0912 C.3     1  UNL1        0.0118
      3 N           3.0473    1.3966    0.0420 N.3     1  UNL1       -0.2946
      4 C           2.5573    1.9711    1.3032 C.3     1  UNL1        0.0354
      5 C           1.0373    1.9710    1.3032 C.3     1  UNL1        0.0128
      6 N           0.5473    2.5455    2.5645 N.3     1  UNL1       -0.3129
      7 C           3.0640    3.3975    1.4409 C.3     1  UNL1        0.0128
      8 C           4.5173    1.3966    0.0420 C.3     1  UNL1        0.0118
      9 C           5.0240    2.8231    0.1797 C.3     1  UNL1        0.0087
     10 N           0.5473   -1.3624   -0.2244 N.3     1  UNL1       -0.3136
     11 H           0.6806    0.6031   -0.9123 H       1  UNL1        0.0437
     12 H           0.6806    0.4352    0.8269 H       1  UNL1        0.0437
     13 H           2.9140   -0.4010   -1.0093 H       1  UNL1        0.0439
     14 H           2.9140   -0.5689    0.7300 H       1  UNL1        0.0439
     15 H           2.9140    1.3850    2.1244 H       1  UNL1        0.0488
     16 H           0.6806    0.9669    1.2063 H       1  UNL1        0.0440
     17 H           0.6806    2.5571    0.4821 H       1  UNL1        0.0440
     18 H           0.5312    1.9790    3.4126 H       1  UNL1        0.1220
     19 H           3.8943    3.6172    2.0790 H       1  UNL1        0.0440
     20 H           3.3856    4.1672    0.7709 H       1  UNL1        0.0440
     21 H           4.8740    0.9785   -0.8761 H       1  UNL1        0.0439
     22 H           4.8740    0.8106    0.8631 H       1  UNL1        0.0439
     23 H           5.3616    3.4219   -0.6403 H       1  UNL1        0.0437
     24 H           5.5260    3.5359    0.8000 H       1  UNL1        0.0437
     25 H           0.2254   -1.9333    0.5572 H       1  UNL1        0.1220
@<TRIPOS>BOND
     1     1     2    1
     2     2     3    1
     3     3     4    1
     4     4     5    1
     5     5     6    1
     6     6     7    1
     7     4     7    1
     8     3     8    1
     9     8     9    1
    10     9    10    1
    11     1    10    1
    12     1    11    1
    13     1    12    1
    14     2    13    1
    15     2    14    1
    16     4    15    1
    17     5    16    1
    18     5    17    1
    19     6    18    1
    20     7    19    1
    21     7    20    1
    22     8    21    1
    23     8    22    1
    24     9    23    1
    25     9    24    1
    26    10    25    1
