@<TRIPOS>MOLECULE
*****
 33 34 0 0 0
SMALL
GASTEIGER

@<TRIPOS>ATOM
      1 C           0.9904    0.0936    0.0339 C.3     1  UNL1        0.0122
      2 C           2.5104    0.0936    0.0339 C.2     1  UNL1        0.2102
      3 O           3.1459    0.9812   -0.6169 O.2     1  UNL1       -0.2761
      4 N           3.2454   -0.9331    0.7866 N.am    1  UNL1       -0.3098
      5 C           4.7154   -0.9331    0.7866 C.3     1  UNL1        0.0572
      6 C           5.2221   -2.0888    1.6340 C.ar    1  UNL1        0.1002
      7 C           6.6380   -2.3010    1.7896 C.ar    1  UNL1        0.0559
      8 N           7.1023   -3.3600    2.5661 N.ar    1  UNL1       -0.2198
      9 C           6.1470   -4.2611    3.2267 C.ar    1  UNL1        0.0670
     10 C           4.7311   -4.0489    3.0711 C.ar    1  UNL1       -0.0359
     11 C           3.7952   -4.9317    3.7184 C.ar    1  UNL1       -0.0562
     12 C           2.3793   -4.7194    3.5628 C.ar    1  UNL1       -0.0404
     13 C           1.8726   -3.5637    2.7154 C.3     1  UNL1        0.0280
     14 C           3.0548   -2.7932    2.1505 C.2     1  UNL1        0.1246
     15 O           2.8573   -1.7808    1.4082 O.2     1  UNL1       -0.3007
     16 C           1.4434   -5.6022    4.2100 C.ar    1  UNL1       -0.0562
     17 C           6.6271   -5.3561    4.0296 C.ar    1  UNL1       -0.0359
     18 N           8.4251   -3.5583    2.7114 N.ar    1  UNL1       -0.0605
     19 N           4.3170   -2.9425    2.2600 N.ar    1  UNL1       -0.1326
     20 H           0.6338    0.9072   -0.5626 H       1  UNL1        0.0322
     21 H           0.6337    0.2034    1.0367 H       1  UNL1        0.0322
     22 H           0.6337   -0.8298   -0.3724 H       1  UNL1        0.0322
     23 H           2.7532   -1.6207    1.2908 H       1  UNL1        0.1491
     24 H           5.0721   -0.0097    1.1929 H       1  UNL1        0.0528
     25 H           5.0721   -1.0429   -0.2162 H       1  UNL1        0.0528
     26 H           7.3087   -1.6684    1.3258 H       1  UNL1        0.0850
     27 H           4.3871   -3.2642    2.4958 H       1  UNL1        0.0639
     28 H           4.1392   -5.7163    4.2937 H       1  UNL1        0.0621
     29 H           1.2781   -2.9115    3.3206 H       1  UNL1        0.0387
     30 H           1.2781   -3.9447    1.9114 H       1  UNL1        0.0387
     31 H           4.0179   -3.0923    2.3698 H       1  UNL1        0.1030
     32 H           0.5191   -5.9725    4.4816 H       1  UNL1        0.0621
     33 H           7.4869   -5.8165    4.3671 H       1  UNL1        0.0639
@<TRIPOS>BOND
     1     1     2    1
     2     2     3    2
     3     2     4   am
     4     4     5    1
     5     5     6    1
     6     6     7   ar
     7     7     8   ar
     8     8     9    1
     9     9    10   ar
    10    10    11   ar
    11    11    12   ar
    12    12    13    1
    13    13    14    1
    14    14    15    2
    15    12    16   ar
    16    16    17   ar
    17     9    17   ar
    18     8    18   ar
    19    18    19   ar
    20     6    19   ar
    21     1    20    1
    22     1    21    1
    23     1    22    1
    24     4    23    1
    25     5    24    1
    26     5    25    1
    27     7    26    1
    28    10    27    1
    29    11    28    1
    30    13    29    1
    31    13    30    1
    32    14    31    1
    33    16    32    1
    34    17    33    1
