@<TRIPOS>MOLECULE
*****
 45 44 0 0 0
SMALL
GASTEIGER

@<TRIPOS>ATOM
      1 C           0.9104   -0.0110   -0.0431 C.3     1  UNL1        0.0121
      2 C           2.4304   -0.0110   -0.0431 C.2     1  UNL1        0.2100
      3 O           3.0659   -1.0757    0.2356 O.2     1  UNL1       -0.2761
      4 N           3.1654    1.2206   -0.3654 N.am    1  UNL1       -0.3133
      5 C           4.6354    1.2206   -0.3654 C.3     1  UNL1        0.0350
      6 C           5.1421    2.6070   -0.7283 C.3     1  UNL1        0.0632
      7 O           6.5621    2.6070   -0.7283 O.3     1  UNL1       -0.3760
      8 C           7.0354    3.9021   -1.0672 C.3     1  UNL1        0.0711
      9 C           8.5554    3.9021   -1.0672 C.3     1  UNL1        0.0711
     10 O           9.0287    5.1973   -1.4062 O.3     1  UNL1       -0.3752
     11 C          10.4487    5.1973   -1.4062 C.3     1  UNL1        0.0711
     12 C          10.9554    6.5837   -1.7690 C.3     1  UNL1        0.0711
     13 O          12.3754    6.5837   -1.7690 O.3     1  UNL1       -0.3752
     14 C          12.8487    7.8788   -2.1080 C.3     1  UNL1        0.0711
     15 C          14.3687    7.8788   -2.1080 C.3     1  UNL1        0.0711
     16 O          14.8421    9.1740   -2.4470 O.3     1  UNL1       -0.3763
     17 C          16.2621    9.1740   -2.4470 C.3     1  UNL1        0.0600
     18 C          16.7687   10.5604   -2.8098 C.3     1  UNL1        0.0166
     19 N          18.2387   10.5604   -2.8098 N.3     1  UNL1       -0.3279
     20 H           0.5538   -0.9869    0.2123 H       1  UNL1        0.0322
     21 H           0.5538    0.2558   -1.0160 H       1  UNL1        0.0322
     22 H           0.5538    0.6982    0.6744 H       1  UNL1        0.0322
     23 H           2.6732    2.0454   -0.5813 H       1  UNL1        0.1488
     24 H           4.9921    0.5114   -1.0829 H       1  UNL1        0.0484
     25 H           4.9921    0.9538    0.6075 H       1  UNL1        0.0484
     26 H           4.7854    3.3161   -0.0108 H       1  UNL1        0.0575
     27 H           4.7854    2.8737   -1.7011 H       1  UNL1        0.0575
     28 H           6.6787    4.6113   -0.3498 H       1  UNL1        0.0583
     29 H           6.6787    4.1689   -2.0401 H       1  UNL1        0.0583
     30 H           8.9121    3.1930   -1.7847 H       1  UNL1        0.0583
     31 H           8.9121    3.6354   -0.0943 H       1  UNL1        0.0583
     32 H          10.8054    4.4881   -2.1237 H       1  UNL1        0.0583
     33 H          10.8054    4.9305   -0.4333 H       1  UNL1        0.0583
     34 H          10.5987    7.2929   -1.0516 H       1  UNL1        0.0583
     35 H          10.5987    6.8504   -2.7419 H       1  UNL1        0.0583
     36 H          12.4921    8.5880   -1.3905 H       1  UNL1        0.0583
     37 H          12.4921    8.1456   -3.0809 H       1  UNL1        0.0583
     38 H          14.7254    7.1697   -2.8255 H       1  UNL1        0.0583
     39 H          14.7254    7.6121   -1.1351 H       1  UNL1        0.0583
     40 H          16.6187    8.4648   -3.1645 H       1  UNL1        0.0572
     41 H          16.6187    8.9072   -1.4741 H       1  UNL1        0.0572
     42 H          16.4121   11.2696   -2.0924 H       1  UNL1        0.0444
     43 H          16.4121   10.8272   -3.7827 H       1  UNL1        0.0444
     44 H          18.5787   10.3061   -1.8824 H       1  UNL1        0.1183
     45 H          18.5787   11.4907   -3.0533 H       1  UNL1        0.1183
@<TRIPOS>BOND
     1     1     2    1
     2     2     3    2
     3     2     4   am
     4     4     5    1
     5     5     6    1
     6     6     7    1
     7     7     8    1
     8     8     9    1
     9     9    10    1
    10    10    11    1
    11    11    12    1
    12    12    13    1
    13    13    14    1
    14    14    15    1
    15    15    16    1
    16    16    17    1
    17    17    18    1
    18    18    19    1
    19     1    20    1
    20     1    21    1
    21     1    22    1
    22     4    23    1
    23     5    24    1
    24     5    25    1
    25     6    26    1
    26     6    27    1
    27     8    28    1
    28     8    29    1
    29     9    30    1
    30     9    31    1
    31    11    32    1
    32    11    33    1
    33    12    34    1
    34    12    35    1
    35    14    36    1
    36    14    37    1
    37    15    38    1
    38    15    39    1
    39    17    40    1
    40    17    41    1
    41    18    42    1
    42    18    43    1
    43    19    44    1
    44    19    45    1
