@<TRIPOS>MOLECULE
*****
 31 30 0 0 0
SMALL
GASTEIGER

@<TRIPOS>ATOM
      1 C           0.9648   -0.0934    0.0057 C.3     1  UNL1        0.0121
      2 C           2.4848   -0.0934    0.0057 C.2     1  UNL1        0.2100
      3 O           3.1202   -1.1502    0.3133 O.2     1  UNL1       -0.2761
      4 N           3.2198    1.1289   -0.3501 N.am    1  UNL1       -0.3133
      5 C           4.6898    1.1289   -0.3501 C.3     1  UNL1        0.0350
      6 C           5.1964    2.5049   -0.7507 C.3     1  UNL1        0.0632
      7 O           6.6164    2.5049   -0.7507 O.3     1  UNL1       -0.3760
      8 C           7.0898    3.7903   -1.1249 C.3     1  UNL1        0.0711
      9 C           8.6098    3.7903   -1.1249 C.3     1  UNL1        0.0711
     10 O           9.0831    5.0757   -1.4991 O.3     1  UNL1       -0.3763
     11 C          10.5031    5.0757   -1.4991 C.3     1  UNL1        0.0600
     12 C          11.0098    6.4517   -1.8996 C.3     1  UNL1        0.0166
     13 N          12.4798    6.4517   -1.8996 N.3     1  UNL1       -0.3279
     14 H           0.6081   -1.0620    0.2876 H       1  UNL1        0.0322
     15 H           0.6081    0.1467   -0.9741 H       1  UNL1        0.0322
     16 H           0.6081    0.6351    0.7035 H       1  UNL1        0.0322
     17 H           2.7275    1.9475   -0.5885 H       1  UNL1        0.1488
     18 H           5.0464    0.4004   -1.0480 H       1  UNL1        0.0484
     19 H           5.0464    0.8888    0.6297 H       1  UNL1        0.0484
     20 H           4.8398    3.2333   -0.0528 H       1  UNL1        0.0575
     21 H           4.8398    2.7450   -1.7305 H       1  UNL1        0.0575
     22 H           6.7331    4.5188   -0.4270 H       1  UNL1        0.0583
     23 H           6.7331    4.0304   -2.1047 H       1  UNL1        0.0583
     24 H           8.9664    3.0618   -1.8227 H       1  UNL1        0.0583
     25 H           8.9664    3.5502   -0.1451 H       1  UNL1        0.0583
     26 H          10.8598    4.3472   -2.1969 H       1  UNL1        0.0572
     27 H          10.8598    4.8356   -0.5193 H       1  UNL1        0.0572
     28 H          10.6531    7.1802   -1.2018 H       1  UNL1        0.0444
     29 H          10.6531    6.6918   -2.8794 H       1  UNL1        0.0444
     30 H          12.8197    6.2228   -0.9656 H       1  UNL1        0.1183
     31 H          12.8198    7.3750   -2.1684 H       1  UNL1        0.1183
@<TRIPOS>BOND
     1     1     2    1
     2     2     3    2
     3     2     4   am
     4     4     5    1
     5     5     6    1
     6     6     7    1
     7     7     8    1
     8     8     9    1
     9     9    10    1
    10    10    11    1
    11    11    12    1
    12    12    13    1
    13     1    14    1
    14     1    15    1
    15     1    16    1
    16     4    17    1
    17     5    18    1
    18     5    19    1
    19     6    20    1
    20     6    21    1
    21     8    22    1
    22     8    23    1
    23     9    24    1
    24     9    25    1
    25    11    26    1
    26    11    27    1
    27    12    28    1
    28    12    29    1
    29    13    30    1
    30    13    31    1
