@<TRIPOS>MOLECULE
*****
 47 47 0 0 0
SMALL
GASTEIGER

@<TRIPOS>ATOM
      1 C           1.0639    0.0407   -0.0653 C.3     1  UNL1       -0.0127
      2 N           2.5339    0.0407   -0.0653 N.3     1  UNL1       -0.3029
      3 C           3.0239   -0.8294    1.0134 C.3     1  UNL1        0.0114
      4 C           4.5439   -0.8294    1.0134 C.3     1  UNL1        0.0118
      5 N           5.0339   -1.6995    2.0922 N.3     1  UNL1       -0.2977
      6 C           4.5439   -3.0688    1.8780 C.3     1  UNL1        0.0224
      7 C           3.0239   -3.0688    1.8780 C.3     1  UNL1        0.0605
      8 O           2.5505   -4.3915    1.6711 O.3     1  UNL1       -0.3762
      9 C           1.1305   -4.3915    1.6711 C.3     1  UNL1        0.0711
     10 C           0.6239   -5.8074    1.4496 C.3     1  UNL1        0.0711
     11 O          -0.7961   -5.8074    1.4496 O.3     1  UNL1       -0.3752
     12 C          -1.2695   -7.1301    1.2427 C.3     1  UNL1        0.0711
     13 C          -2.7895   -7.1301    1.2427 C.3     1  UNL1        0.0711
     14 O          -3.2628   -8.4528    1.0358 O.3     1  UNL1       -0.3752
     15 C          -4.6828   -8.4527    1.0359 C.3     1  UNL1        0.0708
     16 C          -5.1895   -9.8686    0.8144 C.3     1  UNL1        0.0676
     17 O          -6.6095   -9.8686    0.8144 O.3     1  UNL1       -0.3927
     18 C           6.5039   -1.6995    2.0922 C.3     1  UNL1        0.0118
     19 C           3.0239    1.4100    0.1489 C.3     1  UNL1        0.0114
     20 H           0.7072   -0.9560   -0.2212 H       1  UNL1        0.0391
     21 H           0.7072    0.6741   -0.8505 H       1  UNL1        0.0391
     22 H           0.7072    0.4040    0.8758 H       1  UNL1        0.0391
     23 H           2.6672   -1.8261    0.8575 H       1  UNL1        0.0439
     24 H           2.6672   -0.4661    1.9546 H       1  UNL1        0.0439
     25 H           4.9005    0.1673    1.1693 H       1  UNL1        0.0439
     26 H           4.9005   -1.1927    0.0723 H       1  UNL1        0.0439
     27 H           4.9005   -3.7022    2.6632 H       1  UNL1        0.0449
     28 H           4.9005   -3.4321    0.9369 H       1  UNL1        0.0449
     29 H           2.6672   -2.4354    1.0928 H       1  UNL1        0.0572
     30 H           2.6672   -2.7055    2.8191 H       1  UNL1        0.0572
     31 H           0.7739   -3.7581    0.8859 H       1  UNL1        0.0583
     32 H           0.7739   -4.0282    2.6122 H       1  UNL1        0.0583
     33 H           0.9805   -6.4407    2.2348 H       1  UNL1        0.0583
     34 H           0.9805   -6.1707    0.5085 H       1  UNL1        0.0583
     35 H          -0.9128   -7.7634    2.0280 H       1  UNL1        0.0583
     36 H          -0.9128   -7.4934    0.3016 H       1  UNL1        0.0583
     37 H          -3.1461   -6.4967    0.4575 H       1  UNL1        0.0583
     38 H          -3.1462   -6.7667    2.1839 H       1  UNL1        0.0583
     39 H          -5.0395   -7.8194    0.2506 H       1  UNL1        0.0583
     40 H          -5.0395   -8.0894    1.9770 H       1  UNL1        0.0583
     41 H          -4.8328  -10.5020    1.5996 H       1  UNL1        0.0580
     42 H          -4.8328  -10.2319   -0.1267 H       1  UNL1        0.0580
     43 H          -6.9328   -9.5392    1.6675 H       1  UNL1        0.2095
     44 H           7.0715   -2.3693    1.4805 H       1  UNL1        0.0439
     45 H           7.3289   -1.6918    2.7734 H       1  UNL1        0.0439
     46 H           3.2955    1.9800   -0.7149 H       1  UNL1        0.0439
     47 H           2.5273    2.2367    0.6125 H       1  UNL1        0.0439
@<TRIPOS>BOND
     1     1     2    1
     2     2     3    1
     3     3     4    1
     4     4     5    1
     5     5     6    1
     6     6     7    1
     7     7     8    1
     8     8     9    1
     9     9    10    1
    10    10    11    1
    11    11    12    1
    12    12    13    1
    13    13    14    1
    14    14    15    1
    15    15    16    1
    16    16    17    1
    17     5    18    1
    18    18    19    1
    19     2    19    1
    20     1    20    1
    21     1    21    1
    22     1    22    1
    23     3    23    1
    24     3    24    1
    25     4    25    1
    26     4    26    1
    27     6    27    1
    28     6    28    1
    29     7    29    1
    30     7    30    1
    31     9    31    1
    32     9    32    1
    33    10    33    1
    34    10    34    1
    35    12    35    1
    36    12    36    1
    37    13    37    1
    38    13    38    1
    39    15    39    1
    40    15    40    1
    41    16    41    1
    42    16    42    1
    43    17    43    1
    44    18    44    1
    45    18    45    1
    46    19    46    1
    47    19    47    1
