@<TRIPOS>MOLECULE
*****
 25 24 0 0 0
SMALL
GASTEIGER

@<TRIPOS>ATOM
      1 C           1.0722   -0.0692   -0.0014 C.3     1  UNL1        0.0365
      2 O           2.4922   -0.0692   -0.0014 O.3     1  UNL1       -0.3807
      3 C           2.9655    1.2687   -0.0491 C.3     1  UNL1        0.0706
      4 C           4.4855    1.2687   -0.0491 C.3     1  UNL1        0.0711
      5 O           4.9588    2.6067   -0.0968 O.3     1  UNL1       -0.3752
      6 C           6.3788    2.6067   -0.0968 C.3     1  UNL1        0.0711
      7 C           6.8855    4.0388   -0.1478 C.3     1  UNL1        0.0715
      8 O           8.3055    4.0388   -0.1478 O.3     1  UNL1       -0.3703
      9 C           8.7788    5.3768   -0.1955 C.3     1  UNL1        0.1028
     10 C          10.2988    5.3768   -0.1955 C.2     1  UNL1        0.1458
     11 O          10.9343    6.4767   -0.2348 O.2     1  UNL1       -0.2986
     12 H           0.7155   -1.0774    0.0346 H       1  UNL1        0.0524
     13 H           0.7155    0.4038   -0.8924 H       1  UNL1        0.0524
     14 H           0.7155    0.4660    0.8538 H       1  UNL1        0.0524
     15 H           2.6088    1.8040    0.8061 H       1  UNL1        0.0582
     16 H           2.6088    1.7417   -0.9401 H       1  UNL1        0.0582
     17 H           4.8422    0.7335   -0.9042 H       1  UNL1        0.0583
     18 H           4.8422    0.7958    0.8420 H       1  UNL1        0.0583
     19 H           6.7355    2.0715   -0.9519 H       1  UNL1        0.0583
     20 H           6.7355    2.1337    0.7943 H       1  UNL1        0.0583
     21 H           6.5288    4.5741    0.7073 H       1  UNL1        0.0583
     22 H           6.5288    4.5118   -1.0389 H       1  UNL1        0.0583
     23 H           8.4222    5.9120    0.6596 H       1  UNL1        0.0636
     24 H           8.4222    5.8497   -1.0866 H       1  UNL1        0.0636
     25 H          10.8148    4.4836   -0.1637 H       1  UNL1        0.1051
@<TRIPOS>BOND
     1     1     2    1
     2     2     3    1
     3     3     4    1
     4     4     5    1
     5     5     6    1
     6     6     7    1
     7     7     8    1
     8     8     9    1
     9     9    10    1
    10    10    11    2
    11     1    12    1
    12     1    13    1
    13     1    14    1
    14     3    15    1
    15     3    16    1
    16     4    17    1
    17     4    18    1
    18     6    19    1
    19     6    20    1
    20     7    21    1
    21     7    22    1
    22     9    23    1
    23     9    24    1
    24    10    25    1
