@<TRIPOS>MOLECULE
*****
 43 43 0 0 0
SMALL
GASTEIGER

@<TRIPOS>ATOM
      1 C           1.0798   -0.0267   -0.0541 C.3     1  UNL1       -0.0653
      2 C           2.5998   -0.0267   -0.0541 C.3     1  UNL1       -0.0559
      3 C           3.1064    1.2644   -0.6760 C.3     1  UNL1       -0.0532
      4 C           4.6264    1.2644   -0.6760 C.3     1  UNL1       -0.0500
      5 C           5.1331    2.5555   -1.2980 C.3     1  UNL1       -0.0186
      6 C           6.6531    2.5555   -1.2980 C.3     1  UNL1        0.0896
      7 O           7.1264    3.7616   -1.8790 O.3     1  UNL1       -0.4920
      8 C           8.5225    3.9954   -1.9916 C.ar    1  UNL1        0.1206
      9 C           9.0026    5.2187   -2.5809 C.ar    1  UNL1       -0.0182
     10 C          10.4185    5.4558   -2.6951 C.ar    1  UNL1       -0.0370
     11 C          10.8986    6.6791   -3.2844 C.ar    1  UNL1        0.0336
     12 N           9.9433    7.6857   -3.7693 N.am    1  UNL1       -0.2855
     13 C           8.4981    7.4437   -3.6527 C.2     1  UNL1        0.2176
     14 O           8.0744    6.3642   -3.1327 O.2     1  UNL1       -0.2755
     15 C           7.5103    8.4845   -4.1541 C.3     1  UNL1        0.0307
     16 C           6.0918    7.9925   -3.9171 C.3     1  UNL1        0.0110
     17 C           5.1041    9.0333   -4.4185 C.2     1  UNL1        0.1208
     18 O           3.8546    8.8241   -4.3177 O.2     1  UNL1       -0.3010
     19 C          12.3145    6.9162   -3.3986 C.ar    1  UNL1       -0.0370
     20 C           9.4584    3.0092   -1.5165 C.ar    1  UNL1       -0.0182
     21 H           0.7231   -0.9355    0.3837 H       1  UNL1        0.0230
     22 H           0.7231    0.0486   -1.0601 H       1  UNL1        0.0230
     23 H           0.7231    0.8069    0.5141 H       1  UNL1        0.0230
     24 H           2.9564   -0.8603   -0.6223 H       1  UNL1        0.0263
     25 H           2.9564   -0.1019    0.9519 H       1  UNL1        0.0263
     26 H           2.7498    2.0980   -0.1079 H       1  UNL1        0.0265
     27 H           2.7498    1.3397   -1.6820 H       1  UNL1        0.0265
     28 H           4.9831    0.4308   -1.2442 H       1  UNL1        0.0266
     29 H           4.9831    1.1891    0.3300 H       1  UNL1        0.0266
     30 H           4.7764    3.3891   -0.7298 H       1  UNL1        0.0298
     31 H           4.7764    2.6308   -2.3040 H       1  UNL1        0.0298
     32 H           7.0097    1.7219   -1.8662 H       1  UNL1        0.0696
     33 H           7.0098    2.4802   -0.2920 H       1  UNL1        0.0696
     34 H           8.3319    5.9254   -2.9213 H       1  UNL1        0.0655
     35 H          11.0891    4.7491   -2.3547 H       1  UNL1        0.0637
     36 H          10.2715    8.5219   -4.1721 H       1  UNL1        0.1548
     37 H           7.6619    8.6449   -5.2011 H       1  UNL1        0.0362
     38 H           7.6619    9.4032   -3.6270 H       1  UNL1        0.0362
     39 H           5.9402    7.8321   -2.8701 H       1  UNL1        0.0343
     40 H           5.9402    7.0738   -4.4443 H       1  UNL1        0.0343
     41 H           5.4481    9.9099   -4.8408 H       1  UNL1        0.1026
     42 H          13.1743    7.4304   -3.6463 H       1  UNL1        0.0637
     43 H           9.5228    2.0813   -1.0695 H       1  UNL1        0.0655
@<TRIPOS>BOND
     1     1     2    1
     2     2     3    1
     3     3     4    1
     4     4     5    1
     5     5     6    1
     6     6     7    1
     7     7     8    1
     8     8     9   ar
     9     9    10   ar
    10    10    11   ar
    11    11    12    1
    12    12    13   am
    13    13    14    2
    14    13    15    1
    15    15    16    1
    16    16    17    1
    17    17    18    2
    18    11    19   ar
    19    19    20   ar
    20     8    20   ar
    21     1    21    1
    22     1    22    1
    23     1    23    1
    24     2    24    1
    25     2    25    1
    26     3    26    1
    27     3    27    1
    28     4    28    1
    29     4    29    1
    30     5    30    1
    31     5    31    1
    32     6    32    1
    33     6    33    1
    34     9    34    1
    35    10    35    1
    36    12    36    1
    37    15    37    1
    38    15    38    1
    39    16    39    1
    40    16    40    1
    41    17    41    1
    42    19    42    1
    43    20    43    1
