@<TRIPOS>MOLECULE
*****
 25 25 0 0 0
SMALL
GASTEIGER

@<TRIPOS>ATOM
      1 C           1.0461   -0.0840   -0.0285 C.3     1  UNL1       -0.0416
      2 C           2.5661   -0.0840   -0.0285 C.3     1  UNL1        0.0449
      3 O           3.0395    0.9800    0.7840 O.3     1  UNL1       -0.3782
      4 C           4.4595    0.9800    0.7840 C.3     1  UNL1        0.0672
      5 C           4.9661    2.1190    1.6538 C.3     1  UNL1        0.0665
      6 N           6.4361    2.1190    1.6538 N.ar    1  UNL1       -0.2488
      7 C           7.1325    3.0776    2.3858 C.ar    1  UNL1        0.0580
      8 C           8.5727    3.0776    2.3858 C.ar    1  UNL1        0.1666
      9 C           9.3327    2.0314    1.5869 C.2     1  UNL1        0.2632
     10 N          10.8027    2.0314    1.5869 N.am    1  UNL1       -0.3240
     11 O           8.6973    1.1567    0.9189 O.2     1  UNL1       -0.2686
     12 N           9.2691    4.0363    3.1179 N.ar    1  UNL1       -0.1248
     13 N           7.1088    1.1929    0.9466 N.ar    1  UNL1       -0.0649
     14 H           0.6895   -0.8858   -0.6408 H       1  UNL1        0.0252
     15 H           0.6895    0.8471   -0.4167 H       1  UNL1        0.0252
     16 H           0.6895   -0.2134    0.9720 H       1  UNL1        0.0252
     17 H           2.9228    0.0453   -1.0290 H       1  UNL1        0.0557
     18 H           2.9228   -1.0151    0.3597 H       1  UNL1        0.0557
     19 H           4.8161    1.1094   -0.2165 H       1  UNL1        0.0578
     20 H           4.8161    0.0489    1.1722 H       1  UNL1        0.0578
     21 H           4.6095    1.9896    2.6543 H       1  UNL1        0.0532
     22 H           4.6095    3.0501    1.2656 H       1  UNL1        0.0532
     23 H           6.6165    3.7880    2.9283 H       1  UNL1        0.0850
     24 H          11.2950    2.7091    2.1044 H       1  UNL1        0.1453
     25 H          11.2950    1.3538    1.0695 H       1  UNL1        0.1453
@<TRIPOS>BOND
     1     1     2    1
     2     2     3    1
     3     3     4    1
     4     4     5    1
     5     5     6    1
     6     6     7   ar
     7     7     8   ar
     8     8     9    1
     9     9    10   am
    10     9    11    2
    11     8    12   ar
    12    12    13   ar
    13     6    13   ar
    14     1    14    1
    15     1    15    1
    16     1    16    1
    17     2    17    1
    18     2    18    1
    19     4    19    1
    20     4    20    1
    21     5    21    1
    22     5    22    1
    23     7    23    1
    24    10    24    1
    25    10    25    1
