@<TRIPOS>MOLECULE
*****
 33 32 0 0 0
SMALL
GASTEIGER

@<TRIPOS>ATOM
      1 C           1.0675   -0.0422    0.0605 C.3     1  UNL1       -0.0570
      2 C           2.5875   -0.0422    0.0605 C.3     1  UNL1        0.0211
      3 C           3.0942    0.1542    1.4800 C.2     1  UNL1        0.2128
      4 O           2.2683    0.2866    2.4369 O.2     1  UNL1       -0.2758
      5 N           4.5394    0.1910    1.7461 N.am    1  UNL1       -0.3131
      6 C           5.0294    0.3809    3.1190 C.3     1  UNL1        0.0350
      7 C           6.5494    0.3809    3.1190 C.3     1  UNL1        0.0632
      8 O           7.0228    0.5644    4.4451 O.3     1  UNL1       -0.3760
      9 C           8.4428    0.5644    4.4451 C.3     1  UNL1        0.0711
     10 C           8.9494    0.7608    5.8647 C.3     1  UNL1        0.0711
     11 O          10.3694    0.7608    5.8647 O.3     1  UNL1       -0.3752
     12 C          10.8427    0.9443    7.1908 C.3     1  UNL1        0.0708
     13 C          12.3627    0.9443    7.1908 C.3     1  UNL1        0.0676
     14 O          12.8361    1.1278    8.5170 O.3     1  UNL1       -0.3927
     15 H           0.7109   -0.1805   -0.9388 H       1  UNL1        0.0234
     16 H           0.7109    0.8923    0.4404 H       1  UNL1        0.0234
     17 H           0.7109   -0.8385    0.6799 H       1  UNL1        0.0234
     18 H           2.9442    0.7541   -0.5589 H       1  UNL1        0.0356
     19 H           2.9442   -0.9767   -0.3194 H       1  UNL1        0.0356
     20 H           5.1792    0.0885    1.0049 H       1  UNL1        0.1488
     21 H           4.6728   -0.4153    3.7383 H       1  UNL1        0.0484
     22 H           4.6728    1.3155    3.4989 H       1  UNL1        0.0484
     23 H           6.9061    1.1772    2.4996 H       1  UNL1        0.0575
     24 H           6.9061   -0.5536    2.7391 H       1  UNL1        0.0575
     25 H           8.7994    1.3607    3.8258 H       1  UNL1        0.0583
     26 H           8.7994   -0.3701    4.0652 H       1  UNL1        0.0583
     27 H           8.5928   -0.0354    6.4841 H       1  UNL1        0.0583
     28 H           8.5928    1.6954    6.2446 H       1  UNL1        0.0583
     29 H          10.4861    0.1480    7.8102 H       1  UNL1        0.0583
     30 H          10.4861    1.8788    7.5707 H       1  UNL1        0.0583
     31 H          12.7194    1.7406    6.5715 H       1  UNL1        0.0580
     32 H          12.7194    0.0098    6.8109 H       1  UNL1        0.0580
     33 H          12.5127    1.9750    8.8614 H       1  UNL1        0.2095
@<TRIPOS>BOND
     1     1     2    1
     2     2     3    1
     3     3     4    2
     4     3     5   am
     5     5     6    1
     6     6     7    1
     7     7     8    1
     8     8     9    1
     9     9    10    1
    10    10    11    1
    11    11    12    1
    12    12    13    1
    13    13    14    1
    14     1    15    1
    15     1    16    1
    16     1    17    1
    17     2    18    1
    18     2    19    1
    19     5    20    1
    20     6    21    1
    21     6    22    1
    22     7    23    1
    23     7    24    1
    24     9    25    1
    25     9    26    1
    26    10    27    1
    27    10    28    1
    28    12    29    1
    29    12    30    1
    30    13    31    1
    31    13    32    1
    32    14    33    1
