@<TRIPOS>MOLECULE
*****
 33 32 0 0 0
SMALL
GASTEIGER

@<TRIPOS>ATOM
      1 C           1.0081    0.0498    0.0863 C.3     1  UNL1       -0.0632
      2 C           2.5281    0.0498    0.0863 C.3     1  UNL1       -0.0323
      3 C           3.0348    0.7630    1.3293 C.3     1  UNL1        0.0475
      4 O           4.4548    0.7630    1.3293 O.3     1  UNL1       -0.3775
      5 C           4.9281    1.4292    2.4906 C.3     1  UNL1        0.0710
      6 C           6.4481    1.4292    2.4906 C.3     1  UNL1        0.0711
      7 O           6.9214    2.0955    3.6518 O.3     1  UNL1       -0.3762
      8 C           8.3414    2.0955    3.6518 C.3     1  UNL1        0.0604
      9 C           8.8481    2.8086    4.8948 C.3     1  UNL1        0.0218
     10 N          10.3181    2.8086    4.8948 N.3     1  UNL1       -0.3062
     11 C          10.8081    3.5048    3.6965 C.3     1  UNL1       -0.0130
     12 C          10.8081    3.4983    6.0970 C.3     1  UNL1       -0.0130
     13 H           0.6514   -0.4522   -0.7887 H       1  UNL1        0.0230
     14 H           0.6514    1.0586    0.0891 H       1  UNL1        0.0230
     15 H           0.6514   -0.4570    0.9586 H       1  UNL1        0.0230
     16 H           2.8848    0.5566   -0.7859 H       1  UNL1        0.0285
     17 H           2.8848   -0.9590    0.0836 H       1  UNL1        0.0285
     18 H           2.6781    0.2562    2.2016 H       1  UNL1        0.0560
     19 H           2.6781    1.7718    1.3321 H       1  UNL1        0.0560
     20 H           4.5714    0.9224    3.3629 H       1  UNL1        0.0583
     21 H           4.5714    2.4380    2.4933 H       1  UNL1        0.0583
     22 H           6.8048    1.9360    1.6183 H       1  UNL1        0.0583
     23 H           6.8048    0.4204    2.4878 H       1  UNL1        0.0583
     24 H           8.6981    2.6022    2.7796 H       1  UNL1        0.0572
     25 H           8.6981    1.0867    3.6491 H       1  UNL1        0.0572
     26 H           8.4914    2.3019    5.7671 H       1  UNL1        0.0449
     27 H           8.4914    3.8174    4.8976 H       1  UNL1        0.0449
     28 H          10.4514    3.0028    2.8215 H       1  UNL1        0.0391
     29 H          11.8781    3.5049    3.6965 H       1  UNL1        0.0391
     30 H          10.4514    4.5137    3.6992 H       1  UNL1        0.0391
     31 H          10.4514    2.9916    6.9693 H       1  UNL1        0.0391
     32 H          10.4514    4.5071    6.0997 H       1  UNL1        0.0391
     33 H          11.8781    3.4983    6.0970 H       1  UNL1        0.0391
@<TRIPOS>BOND
     1     1     2    1
     2     2     3    1
     3     3     4    1
     4     4     5    1
     5     5     6    1
     6     6     7    1
     7     7     8    1
     8     8     9    1
     9     9    10    1
    10    10    11    1
    11    10    12    1
    12     1    13    1
    13     1    14    1
    14     1    15    1
    15     2    16    1
    16     2    17    1
    17     3    18    1
    18     3    19    1
    19     5    20    1
    20     5    21    1
    21     6    22    1
    22     6    23    1
    23     8    24    1
    24     8    25    1
    25     9    26    1
    26     9    27    1
    27    11    28    1
    28    11    29    1
    29    11    30    1
    30    12    31    1
    31    12    32    1
    32    12    33    1
