@<TRIPOS>MOLECULE
*****
 30 29 0 0 0
SMALL
GASTEIGER

@<TRIPOS>ATOM
      1 C           1.0425   -0.0039    0.0904 C.3     1  UNL1        0.0121
      2 C           2.5625   -0.0039    0.0904 C.2     1  UNL1        0.2100
      3 O           3.1980   -0.7404    0.9084 O.2     1  UNL1       -0.2761
      4 N           3.2975    0.8480   -0.8556 N.am    1  UNL1       -0.3133
      5 C           4.7675    0.8480   -0.8556 C.3     1  UNL1        0.0350
      6 C           5.2742    1.8069   -1.9206 C.3     1  UNL1        0.0632
      7 O           6.6942    1.8069   -1.9206 O.3     1  UNL1       -0.3760
      8 C           7.1675    2.7027   -2.9155 C.3     1  UNL1        0.0711
      9 C           8.6875    2.7027   -2.9155 C.3     1  UNL1        0.0711
     10 O           9.1608    3.5985   -3.9104 O.3     1  UNL1       -0.3752
     11 C          10.5808    3.5985   -3.9104 C.3     1  UNL1        0.0708
     12 C          11.0875    4.5575   -4.9754 C.3     1  UNL1        0.0676
     13 O          12.5075    4.5575   -4.9754 O.3     1  UNL1       -0.3927
     14 H           0.6858   -0.6789    0.8401 H       1  UNL1        0.0322
     15 H           0.6858   -0.3156   -0.8690 H       1  UNL1        0.0322
     16 H           0.6858    0.9829    0.3002 H       1  UNL1        0.0322
     17 H           2.8053    1.4185   -1.4892 H       1  UNL1        0.1488
     18 H           5.1242   -0.1388   -1.0654 H       1  UNL1        0.0484
     19 H           5.1242    1.1597    0.1038 H       1  UNL1        0.0484
     20 H           4.9175    2.7936   -1.7108 H       1  UNL1        0.0575
     21 H           4.9175    1.4951   -2.8800 H       1  UNL1        0.0575
     22 H           6.8108    3.6895   -2.7058 H       1  UNL1        0.0583
     23 H           6.8108    2.3910   -3.8749 H       1  UNL1        0.0583
     24 H           9.0442    1.7160   -3.1253 H       1  UNL1        0.0583
     25 H           9.0442    3.0144   -1.9561 H       1  UNL1        0.0583
     26 H          10.9375    2.6118   -4.1202 H       1  UNL1        0.0583
     27 H          10.9375    3.9103   -2.9510 H       1  UNL1        0.0583
     28 H          10.7308    5.5442   -4.7656 H       1  UNL1        0.0580
     29 H          10.7308    4.2457   -5.9348 H       1  UNL1        0.0580
     30 H          12.8308    4.8401   -4.1056 H       1  UNL1        0.2095
@<TRIPOS>BOND
     1     1     2    1
     2     2     3    2
     3     2     4   am
     4     4     5    1
     5     5     6    1
     6     6     7    1
     7     7     8    1
     8     8     9    1
     9     9    10    1
    10    10    11    1
    11    11    12    1
    12    12    13    1
    13     1    14    1
    14     1    15    1
    15     1    16    1
    16     4    17    1
    17     5    18    1
    18     5    19    1
    19     6    20    1
    20     6    21    1
    21     8    22    1
    22     8    23    1
    23     9    24    1
    24     9    25    1
    25    11    26    1
    26    11    27    1
    27    12    28    1
    28    12    29    1
    29    13    30    1
