@<TRIPOS>MOLECULE
*****
 42 43 0 0 0
SMALL
GASTEIGER

@<TRIPOS>ATOM
      1 C           1.0755   -0.0354    0.0552 C.3     1  UNL1       -0.0653
      2 C           2.5955   -0.0354    0.0552 C.3     1  UNL1       -0.0558
      3 C           3.1022    0.1637    1.4743 C.3     1  UNL1       -0.0502
      4 C           4.6222    0.1637    1.4743 C.3     1  UNL1       -0.0186
      5 C           5.1288    0.3628    2.8935 C.3     1  UNL1        0.0896
      6 O           6.5488    0.3628    2.8935 O.3     1  UNL1       -0.4920
      7 C           7.2588    0.5337    4.1113 C.ar    1  UNL1        0.1206
      8 C           8.6990    0.5337    4.1113 C.ar    1  UNL1       -0.0179
      9 C           9.4191    0.7070    5.3465 C.ar    1  UNL1       -0.0311
     10 C          10.8593    0.7070    5.3465 C.ar    1  UNL1        0.0864
     11 N          11.5943    0.5301    4.0858 N.2     1  UNL1       -0.1493
     12 N          10.9589    0.3772    2.9958 N.2     1  UNL1       -0.1493
     13 C          11.6939    0.2003    1.7351 C.ar    1  UNL1        0.0862
     14 C          10.9738    0.0270    0.5000 C.ar    1  UNL1       -0.0339
     15 C          11.6939   -0.1464   -0.7352 C.ar    1  UNL1       -0.0495
     16 C          10.9738   -0.3197   -1.9703 C.ar    1  UNL1        0.0143
     17 C           9.4538   -0.3197   -1.9703 C.2     1  UNL1        0.1502
     18 O           8.8183   -0.1667   -0.8804 O.2     1  UNL1       -0.2957
     19 C          11.6939   -0.4930   -3.2055 C.ar    1  UNL1       -0.0495
     20 C          13.1341    0.2003    1.7351 C.ar    1  UNL1       -0.0339
     21 C          11.5794    0.8804    6.5816 C.ar    1  UNL1       -0.0311
     22 C           6.5387    0.7070    5.3465 C.ar    1  UNL1       -0.0179
     23 H           0.7188   -0.1756   -0.9439 H       1  UNL1        0.0230
     24 H           0.7188    0.8998    0.4333 H       1  UNL1        0.0230
     25 H           0.7188   -0.8305    0.6761 H       1  UNL1        0.0230
     26 H           2.9522    0.7596   -0.5658 H       1  UNL1        0.0263
     27 H           2.9522   -0.9707   -0.3230 H       1  UNL1        0.0263
     28 H           2.7455   -0.6314    2.0952 H       1  UNL1        0.0266
     29 H           2.7455    1.0990    1.8524 H       1  UNL1        0.0266
     30 H           4.9788    0.9588    0.8534 H       1  UNL1        0.0298
     31 H           4.9788   -0.7716    1.0962 H       1  UNL1        0.0298
     32 H           4.7722   -0.4322    3.5144 H       1  UNL1        0.0696
     33 H           4.7722    1.2981    3.2716 H       1  UNL1        0.0696
     34 H           9.2150    0.4095    3.2262 H       1  UNL1        0.0655
     35 H           8.9031    0.8312    6.2315 H       1  UNL1        0.0640
     36 H           9.9418    0.0270    0.5000 H       1  UNL1        0.0639
     37 H          12.7259   -0.1464   -0.7352 H       1  UNL1        0.0625
     38 H           8.9378   -0.4439   -2.8554 H       1  UNL1        0.1081
     39 H          11.8187   -0.6353   -4.2200 H       1  UNL1        0.0625
     40 H          13.9588    0.2865    2.3494 H       1  UNL1        0.0639
     41 H          12.4042    0.9666    7.1959 H       1  UNL1        0.0640
     42 H           5.5891    0.7632    5.7466 H       1  UNL1        0.0655
@<TRIPOS>BOND
     1     1     2    1
     2     2     3    1
     3     3     4    1
     4     4     5    1
     5     5     6    1
     6     6     7    1
     7     7     8   ar
     8     8     9   ar
     9     9    10   ar
    10    10    11    1
    11    11    12    2
    12    12    13    1
    13    13    14   ar
    14    14    15   ar
    15    15    16   ar
    16    16    17    1
    17    17    18    2
    18    16    19   ar
    19    19    20   ar
    20    13    20   ar
    21    10    21   ar
    22    21    22   ar
    23     7    22   ar
    24     1    23    1
    25     1    24    1
    26     1    25    1
    27     2    26    1
    28     2    27    1
    29     3    28    1
    30     3    29    1
    31     4    30    1
    32     4    31    1
    33     5    32    1
    34     5    33    1
    35     8    34    1
    36     9    35    1
    37    14    36    1
    38    15    37    1
    39    17    38    1
    40    19    39    1
    41    20    40    1
    42    21    41    1
    43    22    42    1
