@<TRIPOS>MOLECULE
*****
 26 26 0 0 0
SMALL
GASTEIGER

@<TRIPOS>ATOM
      1 N           0.9619    0.0039   -0.0924 N.am    1  UNL1       -0.3278
      2 C           2.4319    0.0039   -0.0924 C.2     1  UNL1        0.2320
      3 O           3.0674    0.3421    0.9550 O.2     1  UNL1       -0.2740
      4 C           3.1919   -0.4006   -1.3451 C.3     1  UNL1        0.1190
      5 N           4.6372   -0.3181   -1.0894 N.ar    1  UNL1       -0.2426
      6 C           5.5423   -0.6434   -2.0969 C.ar    1  UNL1        0.0492
      7 C           6.9582   -0.5625   -1.8464 C.ar    1  UNL1        0.0829
      8 C           7.4649   -0.1221   -0.4827 C.3     1  UNL1       -0.0068
      9 C           6.2826    0.1714    0.4265 C.3     1  UNL1       -0.0411
     10 C           6.7893    0.6118    1.7902 C.3     1  UNL1        0.0031
     11 C           5.6071    0.9053    2.6993 C.2     1  UNL1        0.1203
     12 O           5.8046    1.2911    3.8941 O.2     1  UNL1       -0.3010
     13 N           7.8633   -0.8878   -2.8539 N.ar    1  UNL1       -0.1345
     14 N           5.0856    0.0717    0.1177 N.ar    1  UNL1       -0.0650
     15 H           0.4697    0.2659    0.7190 H       1  UNL1        0.1450
     16 H           0.4697   -0.2581   -0.9037 H       1  UNL1        0.1450
     17 H           2.9334    0.2584   -2.1474 H       1  UNL1        0.0605
     18 H           2.9334   -1.4044   -1.6105 H       1  UNL1        0.0605
     19 H           5.1983   -0.9423   -3.0228 H       1  UNL1        0.0845
     20 H           8.0593    0.7609   -0.5911 H       1  UNL1        0.0329
     21 H           8.0593   -0.9019   -0.0542 H       1  UNL1        0.0329
     22 H           5.6882   -0.7116    0.5349 H       1  UNL1        0.0273
     23 H           5.6882    0.9511   -0.0020 H       1  UNL1        0.0273
     24 H           7.3838    1.4948    1.6817 H       1  UNL1        0.0339
     25 H           7.3838   -0.1679    2.2187 H       1  UNL1        0.0339
     26 H           4.6440    0.7914    2.3465 H       1  UNL1        0.1026
@<TRIPOS>BOND
     1     1     2   am
     2     2     3    2
     3     2     4    1
     4     4     5    1
     5     5     6   ar
     6     6     7   ar
     7     7     8    1
     8     8     9    1
     9     9    10    1
    10    10    11    1
    11    11    12    2
    12     7    13   ar
    13    13    14   ar
    14     5    14   ar
    15     1    15    1
    16     1    16    1
    17     4    17    1
    18     4    18    1
    19     6    19    1
    20     8    20    1
    21     8    21    1
    22     9    22    1
    23     9    23    1
    24    10    24    1
    25    10    25    1
    26    11    26    1
