@<TRIPOS>MOLECULE
*****
 27 26 0 0 0
SMALL
GASTEIGER

@<TRIPOS>ATOM
      1 C           1.0831    0.0555    0.0038 C.3     1  UNL1       -0.0653
      2 C           2.6031    0.0555    0.0038 C.3     1  UNL1       -0.0559
      3 C           3.1098    1.0037    1.0783 C.3     1  UNL1       -0.0533
      4 C           4.6298    1.0037    1.0783 C.3     1  UNL1       -0.0517
      5 C           5.1364    1.9518    2.1529 C.3     1  UNL1       -0.0374
      6 C           6.6564    1.9518    2.1529 C.3     1  UNL1        0.0116
      7 N           7.1464    2.8688    3.1921 N.am    1  UNL1       -0.3155
      8 C           8.5917    3.0465    3.3935 C.2     1  UNL1        0.2099
      9 C           9.5794    2.2821    2.5272 C.3     1  UNL1        0.0121
     10 O           9.0153    3.8393    4.2920 O.2     1  UNL1       -0.2761
     11 H           0.7264   -0.6119   -0.7527 H       1  UNL1        0.0230
     12 H           0.7264    1.0443   -0.1961 H       1  UNL1        0.0230
     13 H           0.7264   -0.2659    0.9600 H       1  UNL1        0.0230
     14 H           2.9598    0.3769   -0.9525 H       1  UNL1        0.0263
     15 H           2.9598   -0.9333    0.2036 H       1  UNL1        0.0263
     16 H           2.7531    0.6823    2.0346 H       1  UNL1        0.0265
     17 H           2.7531    1.9925    0.8785 H       1  UNL1        0.0265
     18 H           4.9864    1.3250    0.1221 H       1  UNL1        0.0266
     19 H           4.9864    0.0148    1.2781 H       1  UNL1        0.0266
     20 H           4.7798    1.6304    3.1091 H       1  UNL1        0.0280
     21 H           4.7797    2.9406    1.9531 H       1  UNL1        0.0280
     22 H           7.0131    2.2732    1.1967 H       1  UNL1        0.0462
     23 H           7.0131    0.9630    2.3527 H       1  UNL1        0.0462
     24 H           6.5067    3.3639    3.7532 H       1  UNL1        0.1487
     25 H           9.0444    1.6690    1.8324 H       1  UNL1        0.0322
     26 H          10.1946    1.6645    3.1478 H       1  UNL1        0.0322
     27 H          10.1946    2.9747    1.9917 H       1  UNL1        0.0322
@<TRIPOS>BOND
     1     1     2    1
     2     2     3    1
     3     3     4    1
     4     4     5    1
     5     5     6    1
     6     6     7    1
     7     7     8   am
     8     8     9    1
     9     8    10    2
    10     1    11    1
    11     1    12    1
    12     1    13    1
    13     2    14    1
    14     2    15    1
    15     3    16    1
    16     3    17    1
    17     4    18    1
    18     4    19    1
    19     5    20    1
    20     5    21    1
    21     6    22    1
    22     6    23    1
    23     7    24    1
    24     9    25    1
    25     9    26    1
    26     9    27    1
