@<TRIPOS>MOLECULE
*****
 25 24 0 0 0
SMALL
GASTEIGER

@<TRIPOS>ATOM
      1 C           0.9009   -0.0128   -0.0037 C.3     1  UNL1       -0.0653
      2 C           2.4209   -0.0128   -0.0037 C.3     1  UNL1       -0.0559
      3 C           2.9276    0.0045   -1.4366 C.3     1  UNL1       -0.0533
      4 C           4.4476    0.0045   -1.4366 C.3     1  UNL1       -0.0530
      5 C           4.9542    0.0218   -2.8696 C.3     1  UNL1       -0.0519
      6 C           6.4742    0.0218   -2.8696 C.3     1  UNL1       -0.0406
      7 C           6.9809    0.0390   -4.3026 C.3     1  UNL1       -0.0069
      8 N           8.4509    0.0390   -4.3026 N.3     1  UNL1       -0.3300
      9 H           0.5442   -0.0250    1.0051 H       1  UNL1        0.0230
     10 H           0.5442   -0.8803   -0.5186 H       1  UNL1        0.0230
     11 H           0.5442    0.8668   -0.4975 H       1  UNL1        0.0230
     12 H           2.7776   -0.8925    0.4902 H       1  UNL1        0.0263
     13 H           2.7776    0.8547    0.5112 H       1  UNL1        0.0263
     14 H           2.5709    0.8841   -1.9305 H       1  UNL1        0.0265
     15 H           2.5709   -0.8630   -1.9515 H       1  UNL1        0.0265
     16 H           4.8042   -0.8752   -0.9428 H       1  UNL1        0.0265
     17 H           4.8042    0.8720   -0.9217 H       1  UNL1        0.0265
     18 H           4.5975    0.9014   -3.3634 H       1  UNL1        0.0266
     19 H           4.5975   -0.8457   -3.3845 H       1  UNL1        0.0266
     20 H           6.8309   -0.8579   -2.3758 H       1  UNL1        0.0277
     21 H           6.8309    0.8893   -2.3547 H       1  UNL1        0.0277
     22 H           6.6242    0.9187   -4.7964 H       1  UNL1        0.0422
     23 H           6.6242   -0.8285   -4.8175 H       1  UNL1        0.0422
     24 H           8.7909    0.8660   -3.8117 H       1  UNL1        0.1182
     25 H           8.7909    0.0506   -5.2642 H       1  UNL1        0.1182
@<TRIPOS>BOND
     1     1     2    1
     2     2     3    1
     3     3     4    1
     4     4     5    1
     5     5     6    1
     6     6     7    1
     7     7     8    1
     8     1     9    1
     9     1    10    1
    10     1    11    1
    11     2    12    1
    12     2    13    1
    13     3    14    1
    14     3    15    1
    15     4    16    1
    16     4    17    1
    17     5    18    1
    18     5    19    1
    19     6    20    1
    20     6    21    1
    21     7    22    1
    22     7    23    1
    23     8    24    1
    24     8    25    1
