@<TRIPOS>MOLECULE
*****
 35 34 0 0 0
SMALL
GASTEIGER

@<TRIPOS>ATOM
      1 C           1.0775   -0.0236   -0.0587 C.3     1  UNL1        0.0486
      2 N           2.5475   -0.0236   -0.0587 N.pl3   1  UNL1       -0.2341
      3 C           3.2825    1.2094   -0.3754 C.3     1  UNL1        0.0547
      4 C           2.2947    2.3284   -0.6629 C.3     1  UNL1        0.0650
      5 O           3.0047    3.5195   -0.9689 O.3     1  UNL1       -0.3759
      6 C           2.0820    4.5649   -1.2375 C.3     1  UNL1        0.0711
      7 C           2.8420    5.8398   -1.5650 C.3     1  UNL1        0.0711
      8 O           1.9192    6.8852   -1.8336 O.3     1  UNL1       -0.3752
      9 C           2.6292    8.0762   -2.1396 C.3     1  UNL1        0.0711
     10 C           1.6415    9.1952   -2.4270 C.3     1  UNL1        0.0710
     11 O           2.3515   10.3863   -2.7330 O.3     1  UNL1       -0.3778
     12 C           1.4287   11.4317   -3.0016 C.3     1  UNL1        0.0449
     13 C           2.1887   12.7066   -3.3291 C.3     1  UNL1       -0.0416
     14 N           3.2575   -1.2147    0.2473 N.2     1  UNL1       -0.0868
     15 N           4.5284   -1.2147    0.2473 N.2     1  UNL1       -0.1875
     16 H           0.7208    0.9535   -0.3097 H       1  UNL1        0.0496
     17 H           0.7208   -0.2947    0.9130 H       1  UNL1        0.0496
     18 H           3.8976    1.0469   -1.2357 H       1  UNL1        0.0503
     19 H           3.8976    1.4817    0.4566 H       1  UNL1        0.0503
     20 H           1.6796    2.4909    0.1974 H       1  UNL1        0.0576
     21 H           1.6796    2.0561   -1.4950 H       1  UNL1        0.0576
     22 H           1.4668    4.7273   -0.3772 H       1  UNL1        0.0583
     23 H           1.4668    4.2926   -2.0695 H       1  UNL1        0.0583
     24 H           3.4571    5.6773   -2.4253 H       1  UNL1        0.0583
     25 H           3.4571    6.1121   -0.7329 H       1  UNL1        0.0583
     26 H           3.2444    7.9138   -2.9998 H       1  UNL1        0.0583
     27 H           3.2444    8.3485   -1.3075 H       1  UNL1        0.0583
     28 H           1.0263    9.3577   -1.5668 H       1  UNL1        0.0583
     29 H           1.0263    8.9229   -3.2591 H       1  UNL1        0.0583
     30 H           0.8135   11.5942   -2.1413 H       1  UNL1        0.0557
     31 H           0.8135   11.1594   -3.8337 H       1  UNL1        0.0557
     32 H           2.8039   12.9789   -2.4971 H       1  UNL1        0.0252
     33 H           1.4934   13.4943   -3.5315 H       1  UNL1        0.0252
     34 H           2.8039   12.5441   -4.1894 H       1  UNL1        0.0252
     35 H           5.0206   -2.0405    0.4595 H       1  UNL1        0.2134
@<TRIPOS>BOND
     1     1     2    1
     2     2     3    1
     3     3     4    1
     4     4     5    1
     5     5     6    1
     6     6     7    1
     7     7     8    1
     8     8     9    1
     9     9    10    1
    10    10    11    1
    11    11    12    1
    12    12    13    1
    13     2    14    1
    14    14    15    2
    15     1    16    1
    16     1    17    1
    17     3    18    1
    18     3    19    1
    19     4    20    1
    20     4    21    1
    21     6    22    1
    22     6    23    1
    23     7    24    1
    24     7    25    1
    25     9    26    1
    26     9    27    1
    27    10    28    1
    28    10    29    1
    29    12    30    1
    30    12    31    1
    31    13    32    1
    32    13    33    1
    33    13    34    1
    34    15    35    1
