@<TRIPOS>MOLECULE
*****
 26 26 0 0 0
SMALL
GASTEIGER

@<TRIPOS>ATOM
      1 C           0.9325    0.0692    0.0256 C.3     1  UNL1       -0.0307
      2 C           2.4525    0.0692    0.0256 C.3     1  UNL1        0.0868
      3 O           2.9258   -0.7274    1.1016 O.3     1  UNL1       -0.4922
      4 C           4.3219   -0.8818    1.3101 C.ar    1  UNL1        0.1205
      5 C           4.8020   -1.6898    2.4015 C.ar    1  UNL1       -0.0197
      6 C           6.2179   -1.8464    2.6130 C.ar    1  UNL1       -0.0550
      7 C           6.6980   -2.6543    3.7043 C.ar    1  UNL1       -0.0450
      8 C           5.7102   -3.3417    4.6328 C.3     1  UNL1       -0.0044
      9 C           4.2918   -3.0168    4.1939 C.3     1  UNL1        0.0482
     10 O           3.3690   -3.6590    5.0613 O.3     1  UNL1       -0.3947
     11 C           8.1139   -2.8109    3.9158 C.ar    1  UNL1       -0.0550
     12 C           5.2578   -0.2305    0.4304 C.ar    1  UNL1       -0.0197
     13 H           0.5758    0.6695   -0.7852 H       1  UNL1        0.0262
     14 H           0.5758    0.4712    0.9508 H       1  UNL1        0.0262
     15 H           0.5758   -0.9331   -0.0888 H       1  UNL1        0.0262
     16 H           2.8092    1.0715    0.1401 H       1  UNL1        0.0694
     17 H           2.8092   -0.3328   -0.8996 H       1  UNL1        0.0694
     18 H           4.1313   -2.1565    3.0319 H       1  UNL1        0.0654
     19 H           6.8886   -1.3796    1.9825 H       1  UNL1        0.0621
     20 H           5.8619   -2.9959    5.6340 H       1  UNL1        0.0335
     21 H           5.8619   -4.4002    4.5943 H       1  UNL1        0.0335
     22 H           4.1401   -3.3626    3.1927 H       1  UNL1        0.0560
     23 H           4.1401   -1.9583    4.2324 H       1  UNL1        0.0560
     24 H           3.5064   -4.6186    5.0264 H       1  UNL1        0.2094
     25 H           8.9737   -3.1505    4.3745 H       1  UNL1        0.0621
     26 H           5.3222    0.3824   -0.3974 H       1  UNL1        0.0654
@<TRIPOS>BOND
     1     1     2    1
     2     2     3    1
     3     3     4    1
     4     4     5   ar
     5     5     6   ar
     6     6     7   ar
     7     7     8    1
     8     8     9    1
     9     9    10    1
    10     7    11   ar
    11    11    12   ar
    12     4    12   ar
    13     1    13    1
    14     1    14    1
    15     1    15    1
    16     2    16    1
    17     2    17    1
    18     5    18    1
    19     6    19    1
    20     8    20    1
    21     8    21    1
    22     9    22    1
    23     9    23    1
    24    10    24    1
    25    11    25    1
    26    12    26    1
