@<TRIPOS>MOLECULE
*****
 46 45 0 0 0
SMALL
GASTEIGER

@<TRIPOS>ATOM
      1 N           0.9425   -0.0445   -0.0686 N.3     1  UNL1       -0.3279
      2 C           2.4125   -0.0445   -0.0686 C.3     1  UNL1        0.0166
      3 C           2.9191   -0.9146    1.0700 C.3     1  UNL1        0.0600
      4 O           4.3391   -0.9146    1.0700 O.3     1  UNL1       -0.3763
      5 C           4.8124   -1.7276    2.1337 C.3     1  UNL1        0.0711
      6 C           6.3324   -1.7276    2.1337 C.3     1  UNL1        0.0711
      7 O           6.8058   -2.5405    3.1975 O.3     1  UNL1       -0.3752
      8 C           8.2258   -2.5405    3.1975 C.3     1  UNL1        0.0711
      9 C           8.7324   -3.4106    4.3361 C.3     1  UNL1        0.0711
     10 O          10.1524   -3.4106    4.3361 O.3     1  UNL1       -0.3752
     11 C          10.6258   -4.2236    5.3998 C.3     1  UNL1        0.0711
     12 C          12.1458   -4.2236    5.3998 C.3     1  UNL1        0.0711
     13 O          12.6191   -5.0365    6.4636 O.3     1  UNL1       -0.3752
     14 C          14.0391   -5.0365    6.4636 C.3     1  UNL1        0.0711
     15 C          14.5458   -5.9066    7.6022 C.3     1  UNL1        0.0711
     16 O          15.9658   -5.9066    7.6022 O.3     1  UNL1       -0.3752
     17 C          16.4391   -6.7196    8.6659 C.3     1  UNL1        0.0708
     18 C          17.9591   -6.7196    8.6659 C.3     1  UNL1        0.0676
     19 O          18.4324   -7.5325    9.7297 O.3     1  UNL1       -0.3927
     20 H           0.6025    0.5395   -0.8327 H       1  UNL1        0.1183
     21 H           0.6025    0.3253    0.8191 H       1  UNL1        0.1183
     22 H           2.7691    0.9560    0.0611 H       1  UNL1        0.0444
     23 H           2.7691   -0.4323   -0.9999 H       1  UNL1        0.0444
     24 H           2.5624   -1.9151    0.9403 H       1  UNL1        0.0572
     25 H           2.5624   -0.5268    2.0013 H       1  UNL1        0.0572
     26 H           4.4558   -2.7280    2.0040 H       1  UNL1        0.0583
     27 H           4.4558   -1.3397    3.0650 H       1  UNL1        0.0583
     28 H           6.6891   -0.7271    2.2634 H       1  UNL1        0.0583
     29 H           6.6891   -2.1154    1.2025 H       1  UNL1        0.0583
     30 H           8.5824   -1.5400    3.3272 H       1  UNL1        0.0583
     31 H           8.5824   -2.9284    2.2662 H       1  UNL1        0.0583
     32 H           8.3758   -4.4111    4.2064 H       1  UNL1        0.0583
     33 H           8.3758   -3.0228    5.2674 H       1  UNL1        0.0583
     34 H          10.2691   -5.2240    5.2701 H       1  UNL1        0.0583
     35 H          10.2691   -3.8357    6.3311 H       1  UNL1        0.0583
     36 H          12.5024   -3.2231    5.5296 H       1  UNL1        0.0583
     37 H          12.5024   -4.6114    4.4686 H       1  UNL1        0.0583
     38 H          14.3958   -4.0360    6.5933 H       1  UNL1        0.0583
     39 H          14.3958   -5.4244    5.5323 H       1  UNL1        0.0583
     40 H          14.1891   -6.9071    7.4725 H       1  UNL1        0.0583
     41 H          14.1891   -5.5188    8.5335 H       1  UNL1        0.0583
     42 H          16.0824   -7.7200    8.5362 H       1  UNL1        0.0583
     43 H          16.0824   -6.3317    9.5972 H       1  UNL1        0.0583
     44 H          18.3157   -5.7191    8.7957 H       1  UNL1        0.0580
     45 H          18.3157   -7.1074    7.7347 H       1  UNL1        0.0580
     46 H          18.1091   -7.1808   10.5739 H       1  UNL1        0.2095
@<TRIPOS>BOND
     1     1     2    1
     2     2     3    1
     3     3     4    1
     4     4     5    1
     5     5     6    1
     6     6     7    1
     7     7     8    1
     8     8     9    1
     9     9    10    1
    10    10    11    1
    11    11    12    1
    12    12    13    1
    13    13    14    1
    14    14    15    1
    15    15    16    1
    16    16    17    1
    17    17    18    1
    18    18    19    1
    19     1    20    1
    20     1    21    1
    21     2    22    1
    22     2    23    1
    23     3    24    1
    24     3    25    1
    25     5    26    1
    26     5    27    1
    27     6    28    1
    28     6    29    1
    29     8    30    1
    30     8    31    1
    31     9    32    1
    32     9    33    1
    33    11    34    1
    34    11    35    1
    35    12    36    1
    36    12    37    1
    37    14    38    1
    38    14    39    1
    39    15    40    1
    40    15    41    1
    41    17    42    1
    42    17    43    1
    43    18    44    1
    44    18    45    1
    45    19    46    1
