@<TRIPOS>MOLECULE
*****
 20 19 0 0 0
SMALL
GASTEIGER

@<TRIPOS>ATOM
      1 C           1.0399   -0.0907    0.0133 C.3     1  UNL1       -0.0653
      2 C           2.5599   -0.0907    0.0133 C.3     1  UNL1       -0.0559
      3 C           3.0665    1.3178    0.2774 C.3     1  UNL1       -0.0533
      4 C           4.5865    1.3178    0.2774 C.3     1  UNL1       -0.0533
      5 C           5.0932    2.7263    0.5415 C.3     1  UNL1       -0.0559
      6 C           6.6132    2.7263    0.5415 C.3     1  UNL1       -0.0653
      7 H           0.6832   -1.0823   -0.1726 H       1  UNL1        0.0230
      8 H           0.6832    0.5660   -0.7525 H       1  UNL1        0.0230
      9 H           0.6832    0.2440    0.9649 H       1  UNL1        0.0230
     10 H           2.9166   -0.4255   -0.9384 H       1  UNL1        0.0263
     11 H           2.9166   -0.7475    0.7790 H       1  UNL1        0.0263
     12 H           2.7099    1.6526    1.2290 H       1  UNL1        0.0265
     13 H           2.7099    1.9746   -0.4884 H       1  UNL1        0.0265
     14 H           4.9432    0.9830   -0.6743 H       1  UNL1        0.0265
     15 H           4.9432    0.6610    1.0431 H       1  UNL1        0.0265
     16 H           4.7365    3.0611    1.4931 H       1  UNL1        0.0263
     17 H           4.7365    3.3831   -0.2243 H       1  UNL1        0.0263
     18 H           6.9699    2.0695    1.3072 H       1  UNL1        0.0230
     19 H           6.9699    3.7178    0.7274 H       1  UNL1        0.0230
     20 H           6.9699    2.3916   -0.4102 H       1  UNL1        0.0230
@<TRIPOS>BOND
     1     1     2    1
     2     2     3    1
     3     3     4    1
     4     4     5    1
     5     5     6    1
     6     1     7    1
     7     1     8    1
     8     1     9    1
     9     2    10    1
    10     2    11    1
    11     3    12    1
    12     3    13    1
    13     4    14    1
    14     4    15    1
    15     5    16    1
    16     5    17    1
    17     6    18    1
    18     6    19    1
    19     6    20    1
