@<TRIPOS>MOLECULE
*****
 39 40 0 0 0
SMALL
GASTEIGER

@<TRIPOS>ATOM
      1 C           1.0851   -0.0511    0.0121 C.3     1  UNL1        0.0124
      2 C           2.6051   -0.0511    0.0121 C.2     1  UNL1        0.2125
      3 O           3.2406    0.5275   -0.9242 O.2     1  UNL1       -0.2759
      4 N           3.3401   -0.7203    1.0950 N.am    1  UNL1       -0.3017
      5 C           4.8101   -0.7203    1.0950 C.3     1  UNL1        0.0149
      6 C           5.3168   -1.4736    2.3141 C.3     1  UNL1       -0.0331
      7 C           6.8368   -1.4736    2.3141 C.3     1  UNL1       -0.0254
      8 C           7.3435   -0.0412    2.3570 C.3     1  UNL1        0.0019
      9 N           6.8535    0.6874    1.1780 N.3     1  UNL1       -0.2997
     10 C           7.3435    2.0727    1.2195 C.3     1  UNL1        0.0115
     11 C           6.8368    2.8260    0.0004 C.3     1  UNL1        0.0087
     12 N           7.3268    4.2113    0.0419 N.3     1  UNL1       -0.3136
     13 C           6.8368    4.9399   -1.1371 C.3     1  UNL1        0.0087
     14 C           5.3835    0.6874    1.1780 C.3     1  UNL1        0.0115
     15 C           7.3435   -2.2270    3.5332 C.3     1  UNL1       -0.0331
     16 C           2.6051   -1.3895    2.1780 C.3     1  UNL1        0.0149
     17 H           0.7285    0.4793   -0.8461 H       1  UNL1        0.0323
     18 H           0.7285    0.4270    0.9004 H       1  UNL1        0.0323
     19 H           0.7285   -1.0594   -0.0181 H       1  UNL1        0.0323
     20 H           5.1668    0.2881    1.1252 H       1  UNL1        0.0464
     21 H           5.1668   -1.1983    0.2067 H       1  UNL1        0.0464
     22 H           4.9601   -2.4820    2.2839 H       1  UNL1        0.0283
     23 H           4.9601   -0.9956    3.2025 H       1  UNL1        0.0283
     24 H           7.1935   -1.9517    1.4258 H       1  UNL1        0.0314
     25 H           8.4135   -0.0412    2.3570 H       1  UNL1        0.0429
     26 H           6.9868    0.4368    3.2454 H       1  UNL1        0.0429
     27 H           8.4135    2.0727    1.2195 H       1  UNL1        0.0439
     28 H           6.9868    2.5507    2.1078 H       1  UNL1        0.0439
     29 H           5.7668    2.8260    0.0004 H       1  UNL1        0.0437
     30 H           7.1935    2.3480   -0.8879 H       1  UNL1        0.0437
     31 H           8.3468    4.2113    0.0419 H       1  UNL1        0.1220
     32 H           7.3606    4.9277   -2.0700 H       1  UNL1        0.0437
     33 H           6.4553    5.9006   -1.4136 H       1  UNL1        0.0437
     34 H           4.8878   -0.0542    0.5870 H       1  UNL1        0.0439
     35 H           4.7114    0.5666    2.0018 H       1  UNL1        0.0439
     36 H           7.7837   -1.7117    4.3612 H       1  UNL1        0.0283
     37 H           7.9772   -3.0611    3.7513 H       1  UNL1        0.0283
     38 H           2.0273   -0.7612    2.8231 H       1  UNL1        0.0464
     39 H           1.8393   -2.1277    2.0622 H       1  UNL1        0.0464
@<TRIPOS>BOND
     1     1     2    1
     2     2     3    2
     3     2     4   am
     4     4     5    1
     5     5     6    1
     6     6     7    1
     7     7     8    1
     8     8     9    1
     9     9    10    1
    10    10    11    1
    11    11    12    1
    12    12    13    1
    13    13    14    1
    14     9    14    1
    15     7    15    1
    16    15    16    1
    17     4    16    1
    18     1    17    1
    19     1    18    1
    20     1    19    1
    21     5    20    1
    22     5    21    1
    23     6    22    1
    24     6    23    1
    25     7    24    1
    26     8    25    1
    27     8    26    1
    28    10    27    1
    29    10    28    1
    30    11    29    1
    31    11    30    1
    32    12    31    1
    33    13    32    1
    34    13    33    1
    35    14    34    1
    36    14    35    1
    37    15    36    1
    38    15    37    1
    39    16    38    1
    40    16    39    1
