@<TRIPOS>MOLECULE
*****
 24 23 0 0 0
SMALL
GASTEIGER

@<TRIPOS>ATOM
      1 N           0.9099   -0.0417    0.0119 N.3     1  UNL1       -0.3300
      2 C           2.3799   -0.0417    0.0119 C.3     1  UNL1       -0.0069
      3 C           2.8865   -1.4408   -0.2980 C.3     1  UNL1       -0.0406
      4 C           4.4065   -1.4408   -0.2980 C.3     1  UNL1       -0.0519
      5 C           4.9132   -2.8400   -0.6079 C.3     1  UNL1       -0.0519
      6 C           6.4332   -2.8400   -0.6079 C.3     1  UNL1       -0.0406
      7 C           6.9399   -4.2391   -0.9178 C.3     1  UNL1       -0.0069
      8 N           8.4099   -4.2391   -0.9178 N.3     1  UNL1       -0.3300
      9 H           0.5699    0.8973    0.2198 H       1  UNL1        0.1182
     10 H           0.5699   -0.6912    0.7210 H       1  UNL1        0.1182
     11 H           2.7365    0.2619    0.9739 H       1  UNL1        0.0422
     12 H           2.7365    0.6397   -0.7320 H       1  UNL1        0.0422
     13 H           2.5299   -1.7444   -1.2600 H       1  UNL1        0.0277
     14 H           2.5299   -2.1222    0.4459 H       1  UNL1        0.0277
     15 H           4.7632   -1.1373    0.6641 H       1  UNL1        0.0266
     16 H           4.7632   -0.7594   -1.0419 H       1  UNL1        0.0266
     17 H           4.5565   -3.1435   -1.5699 H       1  UNL1        0.0266
     18 H           4.5565   -3.5214    0.1360 H       1  UNL1        0.0266
     19 H           6.7899   -2.5364    0.3542 H       1  UNL1        0.0277
     20 H           6.7899   -2.1586   -1.3518 H       1  UNL1        0.0277
     21 H           6.5832   -4.5427   -1.8798 H       1  UNL1        0.0422
     22 H           6.5832   -4.9205   -0.1739 H       1  UNL1        0.0422
     23 H           8.7498   -3.5896   -1.6269 H       1  UNL1        0.1182
     24 H           8.7499   -5.1781   -1.1257 H       1  UNL1        0.1182
@<TRIPOS>BOND
     1     1     2    1
     2     2     3    1
     3     3     4    1
     4     4     5    1
     5     5     6    1
     6     6     7    1
     7     7     8    1
     8     1     9    1
     9     1    10    1
    10     2    11    1
    11     2    12    1
    12     3    13    1
    13     3    14    1
    14     4    15    1
    15     4    16    1
    16     5    17    1
    17     5    18    1
    18     6    19    1
    19     6    20    1
    20     7    21    1
    21     7    22    1
    22     8    23    1
    23     8    24    1
