@<TRIPOS>MOLECULE
*****
 30 30 0 0 0
SMALL
GASTEIGER

@<TRIPOS>ATOM
      1 C           0.9733    0.0709    0.0652 C.3     1  UNL1       -0.0191
      2 C           2.4933    0.0709    0.0652 C.ar    1  UNL1        0.0798
      3 C           3.2134    0.8238    1.0596 C.ar    1  UNL1        0.0484
      4 N           4.6062    0.8238    1.0596 N.ar    1  UNL1       -0.2515
      5 C           5.3412    0.0553    0.0447 C.3     1  UNL1        0.0432
      6 C           4.3534   -0.6420   -0.8764 C.3     1  UNL1       -0.0333
      7 C           5.1134   -1.4366   -1.9260 C.3     1  UNL1       -0.0510
      8 C           4.1257   -2.1340   -2.8471 C.3     1  UNL1       -0.0447
      9 C           4.8857   -2.9285   -3.8966 C.3     1  UNL1        0.0237
     10 C           3.8979   -3.6259   -4.8177 C.2     1  UNL1        0.2105
     11 N           2.4527   -3.4637   -4.6035 N.am    1  UNL1       -0.3293
     12 O           4.3216   -4.3491   -5.7730 O.2     1  UNL1       -0.2760
     13 N           5.2789    1.5271    1.9886 N.ar    1  UNL1       -0.0655
     14 N           3.1897   -0.6572   -0.8965 N.ar    1  UNL1       -0.1348
     15 H           0.6166    0.6798    0.8695 H       1  UNL1        0.0294
     16 H           0.6166   -0.9301    0.1904 H       1  UNL1        0.0294
     17 H           0.6166    0.4630   -0.8643 H       1  UNL1        0.0294
     18 H           2.6974    1.3632    1.7722 H       1  UNL1        0.0845
     19 H           5.9563   -0.6754    0.5268 H       1  UNL1        0.0509
     20 H           5.9563    0.7177   -0.5279 H       1  UNL1        0.0509
     21 H           3.7383    0.0887   -1.3586 H       1  UNL1        0.0283
     22 H           3.7383   -1.3044   -0.3039 H       1  UNL1        0.0283
     23 H           5.7286   -2.1674   -1.4438 H       1  UNL1        0.0266
     24 H           5.7286   -0.7743   -2.4985 H       1  UNL1        0.0266
     25 H           3.5105   -1.4032   -3.3292 H       1  UNL1        0.0270
     26 H           3.5105   -2.7963   -2.2745 H       1  UNL1        0.0270
     27 H           5.5008   -3.6593   -3.4144 H       1  UNL1        0.0358
     28 H           5.5009   -2.2662   -4.4691 H       1  UNL1        0.0358
     29 H           2.1245   -2.9035   -3.8635 H       1  UNL1        0.1449
     30 H           1.8129   -3.9154   -5.2001 H       1  UNL1        0.1449
@<TRIPOS>BOND
     1     1     2    1
     2     2     3   ar
     3     3     4   ar
     4     4     5    1
     5     5     6    1
     6     6     7    1
     7     7     8    1
     8     8     9    1
     9     9    10    1
    10    10    11   am
    11    10    12    2
    12     4    13   ar
    13    13    14   ar
    14     2    14   ar
    15     1    15    1
    16     1    16    1
    17     1    17    1
    18     3    18    1
    19     5    19    1
    20     5    20    1
    21     6    21    1
    22     6    22    1
    23     7    23    1
    24     7    24    1
    25     8    25    1
    26     8    26    1
    27     9    27    1
    28     9    28    1
    29    11    29    1
    30    11    30    1
