@<TRIPOS>MOLECULE
*****
 15 14 0 0 0
SMALL
GASTEIGER

@<TRIPOS>ATOM
      1 C           1.0463    0.0742   -0.0485 C.3     1  UNL1       -0.0632
      2 C           2.5663    0.0742   -0.0485 C.3     1  UNL1       -0.0323
      3 C           3.0730    1.0794   -1.0699 C.3     1  UNL1        0.0471
      4 O           4.4930    1.0794   -1.0699 O.3     1  UNL1       -0.3830
      5 C           4.9663    2.0184   -2.0242 C.3     1  UNL1        0.0364
      6 H           0.6896   -0.6334    0.6706 H       1  UNL1        0.0230
      7 H           0.6896   -0.1947   -1.0208 H       1  UNL1        0.0230
      8 H           0.6896    1.0507    0.2048 H       1  UNL1        0.0230
      9 H           2.9230   -0.9023   -0.3017 H       1  UNL1        0.0285
     10 H           2.9230    0.3431    0.9238 H       1  UNL1        0.0285
     11 H           2.7163    2.0559   -0.8167 H       1  UNL1        0.0559
     12 H           2.7163    0.8104   -2.0422 H       1  UNL1        0.0559
     13 H           6.0363    2.0184   -2.0242 H       1  UNL1        0.0523
     14 H           4.6096    2.9949   -1.7709 H       1  UNL1        0.0523
     15 H           4.6096    1.7494   -2.9965 H       1  UNL1        0.0523
@<TRIPOS>BOND
     1     1     2    1
     2     2     3    1
     3     3     4    1
     4     4     5    1
     5     1     6    1
     6     1     7    1
     7     1     8    1
     8     2     9    1
     9     2    10    1
    10     3    11    1
    11     3    12    1
    12     5    13    1
    13     5    14    1
    14     5    15    1
