@<TRIPOS>MOLECULE
*****
 28 29 0 0 0
SMALL
GASTEIGER

@<TRIPOS>ATOM
      1 C           1.0487   -0.0654    0.0579 C.3     1  UNL1        0.0087
      2 C           2.5687   -0.0654    0.0579 C.3     1  UNL1        0.0115
      3 N           3.0587    0.6454   -1.1319 N.3     1  UNL1       -0.2996
      4 C           2.5687    2.0312   -1.1111 C.3     1  UNL1        0.0041
      5 C           1.0487    2.0312   -1.1111 C.3     1  UNL1       -0.0032
      6 C           0.5420    3.4641   -1.0897 C.3     1  UNL1        0.0011
      7 N          -0.9280    3.4641   -1.0897 N.3     1  UNL1       -0.3153
      8 C           0.5420    1.2962    0.1191 C.3     1  UNL1        0.0011
      9 C           4.5287    0.6454   -1.1319 C.3     1  UNL1        0.0115
     10 C           5.0353    1.3804   -2.3621 C.3     1  UNL1        0.0087
     11 N           0.5587   -0.7762    1.2477 N.3     1  UNL1       -0.3136
     12 H           0.6920   -0.5567   -0.8232 H       1  UNL1        0.0437
     13 H           0.6920    0.9433    0.0730 H       1  UNL1        0.0437
     14 H           2.9254   -1.0741    0.0428 H       1  UNL1        0.0439
     15 H           2.9254    0.4259    0.9390 H       1  UNL1        0.0439
     16 H           2.9253    2.5486   -1.9772 H       1  UNL1        0.0430
     17 H           2.9254    2.5225   -0.2301 H       1  UNL1        0.0430
     18 H           0.6920    1.5399   -1.9922 H       1  UNL1        0.0338
     19 H           0.8987    3.9815   -1.9558 H       1  UNL1        0.0428
     20 H           0.8987    3.9554   -0.2086 H       1  UNL1        0.0428
     21 H          -1.4396    3.3132   -1.9591 H       1  UNL1        0.1220
     22 H           0.1855    0.2905    0.0396 H       1  UNL1        0.0428
     23 H           0.9233    1.0753    1.0941 H       1  UNL1        0.0428
     24 H           4.8854   -0.3633   -1.1469 H       1  UNL1        0.0439
     25 H           4.8854    1.1367   -0.2508 H       1  UNL1        0.0439
     26 H           5.3730    0.8958   -3.2543 H       1  UNL1        0.0437
     27 H           5.5373    2.2462   -2.7408 H       1  UNL1        0.0437
     28 H           0.2368   -0.3142    2.0982 H       1  UNL1        0.1220
@<TRIPOS>BOND
     1     1     2    1
     2     2     3    1
     3     3     4    1
     4     4     5    1
     5     5     6    1
     6     6     7    1
     7     7     8    1
     8     5     8    1
     9     3     9    1
    10     9    10    1
    11    10    11    1
    12     1    11    1
    13     1    12    1
    14     1    13    1
    15     2    14    1
    16     2    15    1
    17     4    16    1
    18     4    17    1
    19     5    18    1
    20     6    19    1
    21     6    20    1
    22     7    21    1
    23     8    22    1
    24     8    23    1
    25     9    24    1
    26     9    25    1
    27    10    26    1
    28    10    27    1
    29    11    28    1
