@<TRIPOS>MOLECULE
*****
 35 34 0 0 0
SMALL
GASTEIGER

@<TRIPOS>ATOM
      1 O           1.0744    0.0664    0.0077 O.2     1  UNL1       -0.3010
      2 C           2.3453    0.0664    0.0077 C.2     1  UNL1        0.1208
      3 C           3.1053   -1.1880    0.4070 C.3     1  UNL1        0.0110
      4 C           4.5997   -0.9233    0.3228 C.3     1  UNL1        0.0303
      5 C           5.3597   -2.1776    0.7220 C.2     1  UNL1        0.2135
      6 O           4.7243   -3.2264    1.0559 O.2     1  UNL1       -0.2758
      7 N           6.8297   -2.1776    0.7220 N.am    1  UNL1       -0.3131
      8 C           7.5647   -3.3907    1.1082 C.3     1  UNL1        0.0350
      9 C           9.0591   -3.1261    1.0239 C.3     1  UNL1        0.0632
     10 O           9.7691   -4.2979    1.3969 O.3     1  UNL1       -0.3760
     11 C          11.1652   -4.0506    1.3182 C.3     1  UNL1        0.0711
     12 C          11.9252   -5.3050    1.7175 C.3     1  UNL1        0.0711
     13 O          13.3213   -5.0577    1.6388 O.3     1  UNL1       -0.3752
     14 C          14.0313   -6.2295    2.0118 C.3     1  UNL1        0.0708
     15 C          15.5257   -5.9649    1.9276 C.3     1  UNL1        0.0676
     16 O          16.2357   -7.1367    2.3006 O.3     1  UNL1       -0.3927
     17 H           2.8613    0.9180   -0.2634 H       1  UNL1        0.1026
     18 H           2.8468   -1.9876   -0.2553 H       1  UNL1        0.0343
     19 H           2.8468   -1.4576    1.4097 H       1  UNL1        0.0343
     20 H           4.8582   -0.1237    0.9851 H       1  UNL1        0.0362
     21 H           4.8582   -0.6536   -0.6799 H       1  UNL1        0.0362
     22 H           7.3220   -1.3652    0.4634 H       1  UNL1        0.1488
     23 H           7.3062   -4.1904    0.4459 H       1  UNL1        0.0484
     24 H           7.3062   -3.6604    2.1108 H       1  UNL1        0.0484
     25 H           9.3176   -2.3264    1.6862 H       1  UNL1        0.0575
     26 H           9.3176   -2.8564    0.0212 H       1  UNL1        0.0575
     27 H          11.4237   -3.2510    1.9805 H       1  UNL1        0.0583
     28 H          11.4237   -3.7810    0.3155 H       1  UNL1        0.0583
     29 H          11.6667   -6.1046    1.0552 H       1  UNL1        0.0583
     30 H          11.6667   -5.5746    2.7202 H       1  UNL1        0.0583
     31 H          13.7728   -7.0292    1.3495 H       1  UNL1        0.0583
     32 H          13.7728   -6.4992    3.0145 H       1  UNL1        0.0583
     33 H          15.7842   -5.1652    2.5899 H       1  UNL1        0.0580
     34 H          15.7842   -5.6952    0.9249 H       1  UNL1        0.0580
     35 H          16.0014   -7.3811    3.2095 H       1  UNL1        0.2095
@<TRIPOS>BOND
     1     1     2    2
     2     2     3    1
     3     3     4    1
     4     4     5    1
     5     5     6    2
     6     5     7   am
     7     7     8    1
     8     8     9    1
     9     9    10    1
    10    10    11    1
    11    11    12    1
    12    12    13    1
    13    13    14    1
    14    14    15    1
    15    15    16    1
    16     2    17    1
    17     3    18    1
    18     3    19    1
    19     4    20    1
    20     4    21    1
    21     7    22    1
    22     8    23    1
    23     8    24    1
    24     9    25    1
    25     9    26    1
    26    11    27    1
    27    11    28    1
    28    12    29    1
    29    12    30    1
    30    14    31    1
    31    14    32    1
    32    15    33    1
    33    15    34    1
    34    16    35    1
