@<TRIPOS>MOLECULE
*****
 45 46 0 0 0
SMALL
GASTEIGER

@<TRIPOS>ATOM
      1 C           1.0842    0.0463    0.0277 C.3     1  UNL1       -0.0524
      2 C           2.6042    0.0463    0.0277 C.3     1  UNL1       -0.0039
      3 N           3.0942   -0.7622   -1.0980 N.3     1  UNL1       -0.3002
      4 C           4.5642   -0.7622   -1.0980 C.3     1  UNL1        0.0117
      5 C           5.0709   -1.5982   -2.2619 C.3     1  UNL1        0.0117
      6 N           6.5409   -1.5982   -2.2619 N.3     1  UNL1       -0.2999
      7 C           7.0309   -2.1688   -0.9989 C.3     1  UNL1       -0.0006
      8 C           6.5242   -1.3328    0.1650 C.3     1  UNL1       -0.0319
      9 C           7.0309   -1.9229    1.4710 C.3     1  UNL1        0.0254
     10 C           6.5242   -1.0869    2.6350 C.2     1  UNL1        0.2172
     11 O           5.7935   -0.0702    2.4165 O.2     1  UNL1       -0.2755
     12 N           6.8793   -1.4543    4.0133 N.am    1  UNL1       -0.2855
     13 C           6.3893   -0.6459    5.1390 C.ar    1  UNL1        0.0334
     14 C           6.7373   -1.0059    6.4893 C.ar    1  UNL1       -0.0405
     15 C           6.2572   -0.2138    7.5922 C.ar    1  UNL1       -0.0600
     16 C           6.6051   -0.5738    8.9426 C.ar    1  UNL1       -0.0616
     17 C           6.1250    0.2183   10.0454 C.ar    1  UNL1       -0.0600
     18 C           5.5613    0.5062    4.8914 C.ar    1  UNL1       -0.0405
     19 C           7.0309   -2.4067   -3.3876 C.3     1  UNL1        0.0117
     20 C           2.6042   -0.1916   -2.3610 C.3     1  UNL1        0.0117
     21 H           0.7275    0.6348    0.8471 H       1  UNL1        0.0242
     22 H           0.7275   -0.9576    0.1277 H       1  UNL1        0.0242
     23 H           0.7275    0.4616   -0.8916 H       1  UNL1        0.0242
     24 H           2.9609   -0.3691    0.9471 H       1  UNL1        0.0424
     25 H           2.9609    1.0501   -0.0722 H       1  UNL1        0.0424
     26 H           4.9209   -1.1776   -0.1786 H       1  UNL1        0.0439
     27 H           4.9209    0.2416   -1.1979 H       1  UNL1        0.0439
     28 H           4.7142   -1.1828   -3.1813 H       1  UNL1        0.0439
     29 H           4.7142   -2.6020   -2.1620 H       1  UNL1        0.0439
     30 H           8.1009   -2.1688   -0.9989 H       1  UNL1        0.0427
     31 H           6.6742   -3.1727   -0.8990 H       1  UNL1        0.0427
     32 H           5.4542   -1.3328    0.1650 H       1  UNL1        0.0282
     33 H           6.8809   -0.3290    0.0651 H       1  UNL1        0.0282
     34 H           8.1009   -1.9229    1.4710 H       1  UNL1        0.0359
     35 H           6.6742   -2.9267    1.5710 H       1  UNL1        0.0359
     36 H           7.4453   -2.2419    4.1825 H       1  UNL1        0.1548
     37 H           7.3306   -1.8314    6.6667 H       1  UNL1        0.0636
     38 H           5.6639    0.6118    7.4148 H       1  UNL1        0.0618
     39 H           7.1984   -1.3993    9.1199 H       1  UNL1        0.0618
     40 H           5.9990    0.4956   11.0315 H       1  UNL1        0.0618
     41 H           5.1200    1.0586    4.1396 H       1  UNL1        0.0636
     42 H           7.1677   -3.4650   -3.3092 H       1  UNL1        0.0439
     43 H           7.8012   -2.4060   -4.1302 H       1  UNL1        0.0439
     44 H           1.7235   -0.6215   -2.7904 H       1  UNL1        0.0439
     45 H           2.2896    0.8098   -2.5687 H       1  UNL1        0.0439
@<TRIPOS>BOND
     1     1     2    1
     2     2     3    1
     3     3     4    1
     4     4     5    1
     5     5     6    1
     6     6     7    1
     7     7     8    1
     8     8     9    1
     9     9    10    1
    10    10    11    2
    11    10    12   am
    12    12    13    1
    13    13    14   ar
    14    14    15   ar
    15    15    16   ar
    16    16    17   ar
    17    17    18   ar
    18    13    18   ar
    19     6    19    1
    20    19    20    1
    21     3    20    1
    22     1    21    1
    23     1    22    1
    24     1    23    1
    25     2    24    1
    26     2    25    1
    27     4    26    1
    28     4    27    1
    29     5    28    1
    30     5    29    1
    31     7    30    1
    32     7    31    1
    33     8    32    1
    34     8    33    1
    35     9    34    1
    36     9    35    1
    37    12    36    1
    38    14    37    1
    39    15    38    1
    40    16    39    1
    41    17    40    1
    42    18    41    1
    43    19    42    1
    44    19    43    1
    45    20    44    1
    46    20    45    1
