@<TRIPOS>MOLECULE
*****
 39 39 0 0 0
SMALL
GASTEIGER

@<TRIPOS>ATOM
      1 C           1.0902    0.0330    0.0278 C.3     1  UNL1       -0.0416
      2 C           2.6102    0.0330    0.0278 C.3     1  UNL1        0.0449
      3 O           3.0836   -0.9511    0.9355 O.3     1  UNL1       -0.3778
      4 C           4.5036   -0.9511    0.9355 C.3     1  UNL1        0.0710
      5 C           5.0102   -2.0044    1.9072 C.3     1  UNL1        0.0711
      6 O           6.4302   -2.0044    1.9072 O.3     1  UNL1       -0.3752
      7 C           6.9035   -2.9885    2.8149 C.3     1  UNL1        0.0711
      8 C           8.4235   -2.9885    2.8149 C.3     1  UNL1        0.0711
      9 O           8.8969   -3.9725    3.7227 O.3     1  UNL1       -0.3757
     10 C          10.3169   -3.9725    3.7227 C.3     1  UNL1        0.0673
     11 C          10.8235   -5.0259    4.6944 C.3     1  UNL1        0.0665
     12 N          12.2935   -5.0259    4.6944 N.ar    1  UNL1       -0.2488
     13 C          12.9899   -5.9125    5.5122 C.ar    1  UNL1        0.0580
     14 C          14.4301   -5.9125    5.5122 C.ar    1  UNL1        0.1666
     15 C          15.1901   -4.9449    4.6197 C.2     1  UNL1        0.2632
     16 N          16.6601   -4.9449    4.6197 N.am    1  UNL1       -0.3240
     17 O          14.5547   -4.1359    3.8734 O.2     1  UNL1       -0.2686
     18 N          15.1266   -6.7991    6.3301 N.ar    1  UNL1       -0.1248
     19 N          12.9663   -4.1694    3.9043 N.ar    1  UNL1       -0.0649
     20 H           0.7336    0.7745   -0.6562 H       1  UNL1        0.0252
     21 H           0.7336    0.2546    1.0119 H       1  UNL1        0.0252
     22 H           0.7336   -0.9301   -0.2724 H       1  UNL1        0.0252
     23 H           2.9669    0.9961    0.3279 H       1  UNL1        0.0557
     24 H           2.9669   -0.1886   -0.9564 H       1  UNL1        0.0557
     25 H           4.8602    0.0120    1.2357 H       1  UNL1        0.0583
     26 H           4.8602   -1.1727   -0.0486 H       1  UNL1        0.0583
     27 H           4.6535   -2.9675    1.6070 H       1  UNL1        0.0583
     28 H           4.6535   -1.7828    2.8913 H       1  UNL1        0.0583
     29 H           6.5469   -3.9516    2.5148 H       1  UNL1        0.0583
     30 H           6.5469   -2.7669    3.7991 H       1  UNL1        0.0583
     31 H           8.7802   -2.0254    3.1151 H       1  UNL1        0.0583
     32 H           8.7802   -3.2101    1.8308 H       1  UNL1        0.0583
     33 H          10.6735   -3.0094    4.0228 H       1  UNL1        0.0578
     34 H          10.6735   -4.1941    2.7385 H       1  UNL1        0.0578
     35 H          10.4669   -5.9890    4.3942 H       1  UNL1        0.0532
     36 H          10.4669   -4.8043    5.6785 H       1  UNL1        0.0532
     37 H          12.4739   -6.5694    6.1182 H       1  UNL1        0.0850
     38 H          17.1524   -5.5716    5.1978 H       1  UNL1        0.1453
     39 H          17.1524   -4.3182    4.0416 H       1  UNL1        0.1453
@<TRIPOS>BOND
     1     1     2    1
     2     2     3    1
     3     3     4    1
     4     4     5    1
     5     5     6    1
     6     6     7    1
     7     7     8    1
     8     8     9    1
     9     9    10    1
    10    10    11    1
    11    11    12    1
    12    12    13   ar
    13    13    14   ar
    14    14    15    1
    15    15    16   am
    16    15    17    2
    17    14    18   ar
    18    18    19   ar
    19    12    19   ar
    20     1    20    1
    21     1    21    1
    22     1    22    1
    23     2    23    1
    24     2    24    1
    25     4    25    1
    26     4    26    1
    27     5    27    1
    28     5    28    1
    29     7    29    1
    30     7    30    1
    31     8    31    1
    32     8    32    1
    33    10    33    1
    34    10    34    1
    35    11    35    1
    36    11    36    1
    37    13    37    1
    38    16    38    1
    39    16    39    1
