@<TRIPOS>MOLECULE
*****
 35 37 0 0 0
SMALL
GASTEIGER

@<TRIPOS>ATOM
      1 C           1.0903    0.0116    0.0413 C.3     1  UNL1        0.0087
      2 C           2.6103    0.0116    0.0413 C.3     1  UNL1        0.0115
      3 N           3.1003   -0.7349    1.2090 N.3     1  UNL1       -0.2997
      4 C           2.6103   -2.1194    1.1464 C.3     1  UNL1        0.0018
      5 C           1.0903   -2.1194    1.1464 C.3     1  UNL1       -0.0271
      6 C           0.5836   -3.5510    1.0816 C.3     1  UNL1       -0.0410
      7 C          -0.9364   -3.5510    1.0816 C.3     1  UNL1       -0.0037
      8 C          -1.4430   -4.9826    1.0169 C.3     1  UNL1        0.0027
      9 N          -2.9130   -4.9826    1.0169 N.3     1  UNL1       -0.3148
     10 C          -1.4430   -2.7791   -0.1258 C.3     1  UNL1        0.0027
     11 C           0.5836   -1.3475   -0.0610 C.3     1  UNL1       -0.0410
     12 C           4.5703   -0.7349    1.2090 C.3     1  UNL1        0.0115
     13 C           5.0770   -1.5068    2.4165 C.3     1  UNL1        0.0087
     14 N           0.6003    0.7581   -1.1264 N.3     1  UNL1       -0.3136
     15 H           0.7337    0.4760    0.9369 H       1  UNL1        0.0437
     16 H           0.7336   -0.9962   -0.0043 H       1  UNL1        0.0437
     17 H           2.9670    1.0194    0.0869 H       1  UNL1        0.0439
     18 H           2.9670   -0.4528   -0.8542 H       1  UNL1        0.0439
     19 H           2.9670   -2.6628    1.9964 H       1  UNL1        0.0429
     20 H           2.9670   -2.5838    0.2508 H       1  UNL1        0.0429
     21 H           0.7336   -1.6550    2.0419 H       1  UNL1        0.0313
     22 H           0.9403   -4.0944    1.9316 H       1  UNL1        0.0274
     23 H           0.9403   -4.0154    0.1861 H       1  UNL1        0.0274
     24 H          -1.0864   -5.5260    1.8668 H       1  UNL1        0.0430
     25 H          -1.0864   -5.4470    0.1213 H       1  UNL1        0.0430
     26 H          -3.4246   -4.8581    1.8904 H       1  UNL1        0.1220
     27 H          -1.7995   -1.7763   -0.0159 H       1  UNL1        0.0430
     28 H          -1.0617   -2.5288   -1.0937 H       1  UNL1        0.0430
     29 H           0.2387   -0.3406    0.0489 H       1  UNL1        0.0274
     30 H           0.9677   -1.1043   -1.0297 H       1  UNL1        0.0274
     31 H           4.9270    0.2729    1.2546 H       1  UNL1        0.0439
     32 H           4.9270   -1.1993    0.3135 H       1  UNL1        0.0439
     33 H           5.4146   -1.0493    3.3229 H       1  UNL1        0.0437
     34 H           5.5790   -2.3836    2.7688 H       1  UNL1        0.0437
     35 H           0.2785    0.3220   -1.9905 H       1  UNL1        0.1220
@<TRIPOS>BOND
     1     1     2    1
     2     2     3    1
     3     3     4    1
     4     4     5    1
     5     5     6    1
     6     6     7    1
     7     7     8    1
     8     8     9    1
     9     9    10    1
    10     7    10    1
    11     7    11    1
    12     5    11    1
    13     3    12    1
    14    12    13    1
    15    13    14    1
    16     1    14    1
    17     1    15    1
    18     1    16    1
    19     2    17    1
    20     2    18    1
    21     4    19    1
    22     4    20    1
    23     5    21    1
    24     6    22    1
    25     6    23    1
    26     8    24    1
    27     8    25    1
    28     9    26    1
    29    10    27    1
    30    10    28    1
    31    11    29    1
    32    11    30    1
    33    12    31    1
    34    12    32    1
    35    13    33    1
    36    13    34    1
    37    14    35    1
