@<TRIPOS>MOLECULE
*****
 42 42 0 0 0
SMALL
GASTEIGER

@<TRIPOS>ATOM
      1 C           0.9728   -0.0702    0.0658 C.3     1  UNL1       -0.0653
      2 C           2.4928   -0.0702    0.0658 C.3     1  UNL1       -0.0559
      3 C           2.9995   -0.4654   -1.3117 C.3     1  UNL1       -0.0533
      4 C           4.5195   -0.4654   -1.3117 C.3     1  UNL1       -0.0531
      5 C           5.0261   -0.8607   -2.6892 C.3     1  UNL1       -0.0530
      6 C           6.5461   -0.8607   -2.6892 C.3     1  UNL1       -0.0526
      7 C           7.0528   -1.2559   -4.0667 C.3     1  UNL1       -0.0448
      8 C           8.5728   -1.2559   -4.0667 C.3     1  UNL1        0.0242
      9 C           9.0795   -1.6511   -5.4442 C.2     1  UNL1        0.2156
     10 O           8.2536   -1.9175   -6.3727 O.2     1  UNL1       -0.2756
     11 N          10.5247   -1.7252   -5.7024 N.am    1  UNL1       -0.2991
     12 C          11.0147   -2.1074   -7.0346 C.3     1  UNL1        0.0272
     13 C          12.5347   -2.1074   -7.0346 C.3     1  UNL1        0.0118
     14 N          13.0247   -2.4896   -8.3668 N.3     1  UNL1       -0.3130
     15 C          14.4947   -2.4896   -8.3668 C.3     1  UNL1        0.0118
     16 C          11.4800   -1.4170   -4.6284 C.3     1  UNL1        0.0272
     17 H           0.6162    0.2080    1.0355 H       1  UNL1        0.0230
     18 H           0.6162   -1.0491   -0.1781 H       1  UNL1        0.0230
     19 H           0.6162    0.6304   -0.6600 H       1  UNL1        0.0230
     20 H           2.8495   -0.7709    0.7916 H       1  UNL1        0.0263
     21 H           2.8495    0.9086    0.3097 H       1  UNL1        0.0263
     22 H           2.6428    0.2352   -2.0375 H       1  UNL1        0.0265
     23 H           2.6428   -1.4443   -1.5556 H       1  UNL1        0.0265
     24 H           4.8762   -1.1661   -0.5859 H       1  UNL1        0.0265
     25 H           4.8762    0.5134   -1.0678 H       1  UNL1        0.0265
     26 H           4.6695   -0.1600   -3.4150 H       1  UNL1        0.0265
     27 H           4.6695   -1.8395   -2.9331 H       1  UNL1        0.0265
     28 H           6.9028   -1.5613   -1.9634 H       1  UNL1        0.0265
     29 H           6.9028    0.1182   -2.4453 H       1  UNL1        0.0265
     30 H           6.6961   -0.5552   -4.7925 H       1  UNL1        0.0270
     31 H           6.6961   -2.2347   -4.3106 H       1  UNL1        0.0270
     32 H           8.9295   -1.9565   -3.3409 H       1  UNL1        0.0358
     33 H           8.9295   -0.2770   -3.8228 H       1  UNL1        0.0358
     34 H          10.6580   -1.4067   -7.7604 H       1  UNL1        0.0477
     35 H          10.6580   -3.0862   -7.2785 H       1  UNL1        0.0477
     36 H          12.8914   -2.8080   -6.3088 H       1  UNL1        0.0439
     37 H          12.8914   -1.1285   -6.7907 H       1  UNL1        0.0439
     38 H          12.6847   -1.8217   -9.0586 H       1  UNL1        0.1220
     39 H          15.0494   -1.7248   -8.8690 H       1  UNL1        0.0439
     40 H          15.2929   -3.1700   -8.5785 H       1  UNL1        0.0439
     41 H          11.4948   -0.4069   -4.2757 H       1  UNL1        0.0477
     42 H          11.4996   -1.8519   -3.6510 H       1  UNL1        0.0477
@<TRIPOS>BOND
     1     1     2    1
     2     2     3    1
     3     3     4    1
     4     4     5    1
     5     5     6    1
     6     6     7    1
     7     7     8    1
     8     8     9    1
     9     9    10    2
    10     9    11   am
    11    11    12    1
    12    12    13    1
    13    13    14    1
    14    14    15    1
    15    15    16    1
    16    11    16    1
    17     1    17    1
    18     1    18    1
    19     1    19    1
    20     2    20    1
    21     2    21    1
    22     3    22    1
    23     3    23    1
    24     4    24    1
    25     4    25    1
    26     5    26    1
    27     5    27    1
    28     6    28    1
    29     6    29    1
    30     7    30    1
    31     7    31    1
    32     8    32    1
    33     8    33    1
    34    12    34    1
    35    12    35    1
    36    13    36    1
    37    13    37    1
    38    14    38    1
    39    15    39    1
    40    15    40    1
    41    16    41    1
    42    16    42    1
