@<TRIPOS>MOLECULE
*****
 27 26 0 0 0
SMALL
GASTEIGER

@<TRIPOS>ATOM
      1 C           0.9731   -0.0937   -0.0222 C.3     1  UNL1       -0.0632
      2 C           2.4931   -0.0937   -0.0222 C.3     1  UNL1       -0.0323
      3 C           2.9998   -1.3384    0.6880 C.3     1  UNL1        0.0475
      4 O           4.4198   -1.3384    0.6880 O.3     1  UNL1       -0.3775
      5 C           4.8931   -2.5012    1.3515 C.3     1  UNL1        0.0710
      6 C           6.4131   -2.5012    1.3515 C.3     1  UNL1        0.0711
      7 O           6.8864   -3.6640    2.0150 O.3     1  UNL1       -0.3763
      8 C           8.3064   -3.6640    2.0150 C.3     1  UNL1        0.0600
      9 C           8.8131   -4.9087    2.7253 C.3     1  UNL1        0.0166
     10 N          10.2831   -4.9087    2.7253 N.3     1  UNL1       -0.3279
     11 H           0.6164    0.7825   -0.5222 H       1  UNL1        0.0230
     12 H           0.6164   -0.0988    0.9866 H       1  UNL1        0.0230
     13 H           0.6164   -0.9648   -0.5310 H       1  UNL1        0.0230
     14 H           2.8498    0.7774    0.4866 H       1  UNL1        0.0285
     15 H           2.8498   -0.0886   -1.0310 H       1  UNL1        0.0285
     16 H           2.6431   -2.2095    0.1792 H       1  UNL1        0.0560
     17 H           2.6431   -1.3435    1.6968 H       1  UNL1        0.0560
     18 H           4.5364   -3.3723    0.8427 H       1  UNL1        0.0583
     19 H           4.5364   -2.5063    2.3603 H       1  UNL1        0.0583
     20 H           6.7698   -1.6301    1.8604 H       1  UNL1        0.0583
     21 H           6.7698   -2.4961    0.3427 H       1  UNL1        0.0583
     22 H           8.6631   -2.7930    2.5239 H       1  UNL1        0.0572
     23 H           8.6631   -3.6589    1.0063 H       1  UNL1        0.0572
     24 H           8.4564   -5.7798    2.2164 H       1  UNL1        0.0444
     25 H           8.4564   -4.9138    3.7341 H       1  UNL1        0.0444
     26 H          10.6231   -4.9038    1.7636 H       1  UNL1        0.1183
     27 H          10.6231   -5.7440    3.2019 H       1  UNL1        0.1183
@<TRIPOS>BOND
     1     1     2    1
     2     2     3    1
     3     3     4    1
     4     4     5    1
     5     5     6    1
     6     6     7    1
     7     7     8    1
     8     8     9    1
     9     9    10    1
    10     1    11    1
    11     1    12    1
    12     1    13    1
    13     2    14    1
    14     2    15    1
    15     3    16    1
    16     3    17    1
    17     5    18    1
    18     5    19    1
    19     6    20    1
    20     6    21    1
    21     8    22    1
    22     8    23    1
    23     9    24    1
    24     9    25    1
    25    10    26    1
    26    10    27    1
