@<TRIPOS>MOLECULE
*****
 50 49 0 0 0
SMALL
GASTEIGER

@<TRIPOS>ATOM
      1 C           0.9602   -0.0636    0.0662 C.3     1  UNL1       -0.0416
      2 C           2.4802   -0.0636    0.0662 C.3     1  UNL1        0.0449
      3 O           2.9535   -1.3945   -0.0787 O.3     1  UNL1       -0.3778
      4 C           4.3735   -1.3945   -0.0787 C.3     1  UNL1        0.0710
      5 C           4.8802   -2.8191   -0.2338 C.3     1  UNL1        0.0711
      6 O           6.3002   -2.8191   -0.2338 O.3     1  UNL1       -0.3752
      7 C           6.7735   -4.1501   -0.3787 C.3     1  UNL1        0.0711
      8 C           8.2935   -4.1501   -0.3787 C.3     1  UNL1        0.0711
      9 O           8.7669   -5.4810   -0.5236 O.3     1  UNL1       -0.3752
     10 C          10.1869   -5.4810   -0.5236 C.3     1  UNL1        0.0711
     11 C          10.6935   -6.9056   -0.6788 C.3     1  UNL1        0.0711
     12 O          12.1135   -6.9056   -0.6788 O.3     1  UNL1       -0.3752
     13 C          12.5868   -8.2366   -0.8237 C.3     1  UNL1        0.0711
     14 C          14.1068   -8.2366   -0.8237 C.3     1  UNL1        0.0711
     15 O          14.5802   -9.5675   -0.9686 O.3     1  UNL1       -0.3752
     16 C          16.0002   -9.5675   -0.9686 C.3     1  UNL1        0.0711
     17 C          16.5068  -10.9922   -1.1237 C.3     1  UNL1        0.0710
     18 O          17.9268  -10.9922   -1.1237 O.3     1  UNL1       -0.3778
     19 C          18.4002  -12.3231   -1.2686 C.3     1  UNL1        0.0449
     20 C          19.9202  -12.3231   -1.2686 C.3     1  UNL1       -0.0416
     21 H           0.6035    0.9393    0.1753 H       1  UNL1        0.0252
     22 H           0.6035   -0.6596    0.8801 H       1  UNL1        0.0252
     23 H           0.6035   -0.4704   -0.8570 H       1  UNL1        0.0252
     24 H           2.8369    0.3433    0.9893 H       1  UNL1        0.0557
     25 H           2.8369    0.5324   -0.7478 H       1  UNL1        0.0557
     26 H           4.7302   -0.9876    0.8444 H       1  UNL1        0.0583
     27 H           4.7302   -0.7985   -0.8927 H       1  UNL1        0.0583
     28 H           4.5235   -3.2260   -1.1570 H       1  UNL1        0.0583
     29 H           4.5235   -3.4151    0.5801 H       1  UNL1        0.0583
     30 H           6.4169   -4.5569   -1.3019 H       1  UNL1        0.0583
     31 H           6.4169   -4.7461    0.4352 H       1  UNL1        0.0583
     32 H           8.6502   -3.7432    0.5444 H       1  UNL1        0.0583
     33 H           8.6502   -3.5541   -1.1927 H       1  UNL1        0.0583
     34 H          10.5435   -5.0741    0.3995 H       1  UNL1        0.0583
     35 H          10.5435   -4.8850   -1.3376 H       1  UNL1        0.0583
     36 H          10.3369   -7.3125   -1.6019 H       1  UNL1        0.0583
     37 H          10.3368   -7.5016    0.1352 H       1  UNL1        0.0583
     38 H          12.2302   -8.6435   -1.7468 H       1  UNL1        0.0583
     39 H          12.2302   -8.8326   -0.0097 H       1  UNL1        0.0583
     40 H          14.4635   -7.8297    0.0995 H       1  UNL1        0.0583
     41 H          14.4635   -7.6406   -1.6376 H       1  UNL1        0.0583
     42 H          16.3568   -9.1606   -0.0454 H       1  UNL1        0.0583
     43 H          16.3568   -8.9715   -1.7825 H       1  UNL1        0.0583
     44 H          16.1502  -11.3990   -2.0468 H       1  UNL1        0.0583
     45 H          16.1502  -11.5882   -0.3097 H       1  UNL1        0.0583
     46 H          18.0435  -12.7300   -2.1917 H       1  UNL1        0.0557
     47 H          18.0435  -12.9191   -0.4546 H       1  UNL1        0.0557
     48 H          20.2768  -11.7271   -2.0825 H       1  UNL1        0.0252
     49 H          20.2768  -13.3260   -1.3777 H       1  UNL1        0.0252
     50 H          20.2768  -11.9162   -0.3454 H       1  UNL1        0.0252
@<TRIPOS>BOND
     1     1     2    1
     2     2     3    1
     3     3     4    1
     4     4     5    1
     5     5     6    1
     6     6     7    1
     7     7     8    1
     8     8     9    1
     9     9    10    1
    10    10    11    1
    11    11    12    1
    12    12    13    1
    13    13    14    1
    14    14    15    1
    15    15    16    1
    16    16    17    1
    17    17    18    1
    18    18    19    1
    19    19    20    1
    20     1    21    1
    21     1    22    1
    22     1    23    1
    23     2    24    1
    24     2    25    1
    25     4    26    1
    26     4    27    1
    27     5    28    1
    28     5    29    1
    29     7    30    1
    30     7    31    1
    31     8    32    1
    32     8    33    1
    33    10    34    1
    34    10    35    1
    35    11    36    1
    36    11    37    1
    37    13    38    1
    38    13    39    1
    39    14    40    1
    40    14    41    1
    41    16    42    1
    42    16    43    1
    43    17    44    1
    44    17    45    1
    45    19    46    1
    46    19    47    1
    47    20    48    1
    48    20    49    1
    49    20    50    1
