@<TRIPOS>MOLECULE
*****
 29 28 0 0 0
SMALL
GASTEIGER

@<TRIPOS>ATOM
      1 C           0.9468   -0.0492    0.0689 C.3     1  UNL1       -0.0570
      2 C           2.4668   -0.0492    0.0689 C.3     1  UNL1        0.0213
      3 C           2.9735    1.3775   -0.0657 C.2     1  UNL1        0.2151
      4 O           2.1476    2.3392   -0.1564 O.2     1  UNL1       -0.2756
      5 N           4.4187    1.6449   -0.0909 N.am    1  UNL1       -0.3033
      6 C           5.3740    0.5326    0.0140 C.3     1  UNL1        0.0032
      7 C           4.9087    3.0248   -0.2210 C.3     1  UNL1        0.0271
      8 C           6.4287    3.0248   -0.2210 C.3     1  UNL1        0.0141
      9 N           6.9187    4.4046   -0.3512 N.3     1  UNL1       -0.3069
     10 C           6.4287    5.2072    0.7787 C.3     1  UNL1       -0.0130
     11 C           8.3887    4.4046   -0.3512 C.3     1  UNL1       -0.0130
     12 H           0.5902   -1.0536    0.1636 H       1  UNL1        0.0234
     13 H           0.5902    0.3709   -0.8482 H       1  UNL1        0.0234
     14 H           0.5902    0.5350    0.8913 H       1  UNL1        0.0234
     15 H           2.8235   -0.6334   -0.7535 H       1  UNL1        0.0356
     16 H           2.8235   -0.4694    0.9861 H       1  UNL1        0.0356
     17 H           4.8390   -0.3900    0.1011 H       1  UNL1        0.0428
     18 H           5.9892    0.6710    0.8785 H       1  UNL1        0.0428
     19 H           5.9892    0.5070   -0.8611 H       1  UNL1        0.0428
     20 H           4.5521    3.6090    0.6014 H       1  UNL1        0.0477
     21 H           4.5521    3.4449   -1.1382 H       1  UNL1        0.0477
     22 H           6.7854    2.4405   -1.0434 H       1  UNL1        0.0442
     23 H           6.7854    2.6046    0.6961 H       1  UNL1        0.0442
     24 H           5.3587    5.2072    0.7787 H       1  UNL1        0.0391
     25 H           6.7854    6.2115    0.6840 H       1  UNL1        0.0391
     26 H           6.7854    4.7870    1.6959 H       1  UNL1        0.0391
     27 H           8.7454    3.8203   -1.1736 H       1  UNL1        0.0391
     28 H           8.7454    3.9844    0.5660 H       1  UNL1        0.0391
     29 H           8.7454    5.4089   -0.4459 H       1  UNL1        0.0391
@<TRIPOS>BOND
     1     1     2    1
     2     2     3    1
     3     3     4    2
     4     3     5   am
     5     5     6    1
     6     5     7    1
     7     7     8    1
     8     8     9    1
     9     9    10    1
    10     9    11    1
    11     1    12    1
    12     1    13    1
    13     1    14    1
    14     2    15    1
    15     2    16    1
    16     6    17    1
    17     6    18    1
    18     6    19    1
    19     7    20    1
    20     7    21    1
    21     8    22    1
    22     8    23    1
    23    10    24    1
    24    10    25    1
    25    10    26    1
    26    11    27    1
    27    11    28    1
    28    11    29    1
