@<TRIPOS>MOLECULE
*****
 42 43 0 0 0
SMALL
GASTEIGER

@<TRIPOS>ATOM
      1 C           1.0240   -0.0793    0.0561 C.1     1  UNL1       -0.1179
      2 C           2.3278   -0.0793    0.0561 C.1     1  UNL1       -0.0900
      3 C           3.8478   -0.0793    0.0561 C.3     1  UNL1        0.0606
      4 N           4.3378    1.2714   -0.2548 N.3     1  UNL1       -0.2915
      5 C           5.8078    1.2714   -0.2548 C.3     1  UNL1        0.0003
      6 C           6.3145    2.6679   -0.5763 C.3     1  UNL1       -0.0343
      7 C           7.8345    2.6679   -0.5763 C.3     1  UNL1       -0.0215
      8 C           8.3411    1.6912   -1.6250 C.3     1  UNL1       -0.0343
      9 C           3.8478    2.2159    0.7594 C.3     1  UNL1        0.0003
     10 C           8.3411    4.0644   -0.8978 C.3     1  UNL1       -0.0180
     11 C           9.8611    4.0644   -0.8978 C.3     1  UNL1        0.0613
     12 N          10.3511    5.4151   -1.2087 N.pl3   1  UNL1       -0.2203
     13 C           9.3959    6.5039   -1.4594 C.cat   1  UNL1        0.4151
     14 N           9.8344    7.7127   -1.7376 N.2     1  UNL1       -0.1089
     15 C          11.2797    7.9745   -1.7979 C.3     1  UNL1        0.1385
     16 N           7.9506    6.2421   -1.3991 N.2     1  UNL1       -0.0880
     17 C           7.0957    7.2166   -1.6234 C.2     1  UNL1        0.0700
     18 C          11.7964    5.6768   -1.2690 C.3     1  UNL1        0.0613
     19 C           8.3411    2.2480    0.7939 C.3     1  UNL1       -0.0180
     20 H           0.0300   -0.0793    0.0561 H       1  UNL1        0.1228
     21 H           4.2045   -0.7668   -0.6821 H       1  UNL1        0.0563
     22 H           4.2045   -0.3748    1.0206 H       1  UNL1        0.0563
     23 H           6.1645    0.5838   -0.9931 H       1  UNL1        0.0427
     24 H           6.1645    0.9758    0.7097 H       1  UNL1        0.0427
     25 H           5.9578    3.3554    0.1619 H       1  UNL1        0.0283
     26 H           5.9578    2.9635   -1.5409 H       1  UNL1        0.0283
     27 H           9.0224    0.9026   -1.3822 H       1  UNL1        0.0283
     28 H           8.7521    1.6854   -2.6129 H       1  UNL1        0.0283
     29 H           3.1666    3.0045    0.5166 H       1  UNL1        0.0427
     30 H           3.4369    2.2217    1.7473 H       1  UNL1        0.0427
     31 H           7.9845    4.7520   -0.1596 H       1  UNL1        0.0299
     32 H           7.9845    4.3600   -1.8623 H       1  UNL1        0.0299
     33 H          10.2178    3.3769   -1.6360 H       1  UNL1        0.0634
     34 H          10.2178    3.7689    0.0667 H       1  UNL1        0.0634
     35 H          11.4460    9.0045   -2.0350 H       1  UNL1        0.0726
     36 H          11.7225    7.3587   -2.5526 H       1  UNL1        0.0726
     37 H           6.0810    7.0329   -1.5811 H       1  UNL1        0.0937
     38 H           7.4397    8.1648   -1.8417 H       1  UNL1        0.0937
     39 H          12.2740    6.4403   -0.6911 H       1  UNL1        0.0634
     40 H          12.6232    5.7554   -1.9436 H       1  UNL1        0.0634
     41 H           7.7804    2.5571    1.6512 H       1  UNL1        0.0299
     42 H           8.5058    1.2678    1.1900 H       1  UNL1        0.0299
@<TRIPOS>BOND
     1     1     2    3
     2     2     3    1
     3     3     4    1
     4     4     5    1
     5     5     6    1
     6     6     7    1
     7     7     8    1
     8     8     9    1
     9     4     9    1
    10     7    10    1
    11    10    11    1
    12    11    12    1
    13    12    13    1
    14    13    14    2
    15    14    15    1
    16    13    16    1
    17    16    17    2
    18    12    18    1
    19    18    19    1
    20     7    19    1
    21     1    20    1
    22     3    21    1
    23     3    22    1
    24     5    23    1
    25     5    24    1
    26     6    25    1
    27     6    26    1
    28     8    27    1
    29     8    28    1
    30     9    29    1
    31     9    30    1
    32    10    31    1
    33    10    32    1
    34    11    33    1
    35    11    34    1
    36    15    35    1
    37    15    36    1
    38    17    37    1
    39    17    38    1
    40    18    39    1
    41    18    40    1
    42    19    41    1
    43    19    42    1
