@<TRIPOS>MOLECULE
*****
 32 32 0 0 0
SMALL
GASTEIGER

@<TRIPOS>ATOM
      1 C           0.9790    0.0586   -0.0782 C.3     1  UNL1       -0.0622
      2 C           2.4990    0.0586   -0.0782 C.3     1  UNL1       -0.0215
      3 C           3.0057   -0.7247   -1.2783 C.3     1  UNL1        0.0893
      4 O           4.4257   -0.7247   -1.2783 O.3     1  UNL1       -0.4920
      5 C           5.1357   -1.3968   -2.3081 C.ar    1  UNL1        0.1205
      6 C           6.5759   -1.3968   -2.3081 C.ar    1  UNL1       -0.0197
      7 C           7.2960   -2.0786   -3.3525 C.ar    1  UNL1       -0.0551
      8 C           8.7362   -2.0786   -3.3525 C.ar    1  UNL1       -0.0457
      9 C           9.4962   -1.3591   -2.2502 C.3     1  UNL1       -0.0121
     10 C           8.5085   -0.7276   -1.2828 C.3     1  UNL1        0.0153
     11 N           9.2435   -0.0317   -0.2167 N.am    1  UNL1       -0.3176
     12 C           8.5085    0.6641    0.8494 C.2     1  UNL1        0.2000
     13 O           9.1439    1.2657    1.7710 O.2     1  UNL1       -0.2795
     14 C           9.4563   -2.7603   -4.3970 C.ar    1  UNL1       -0.0551
     15 C           4.4156   -2.0786   -3.3525 C.ar    1  UNL1       -0.0197
     16 H           0.6224    0.6101    0.7665 H       1  UNL1        0.0231
     17 H           0.6224   -0.9486   -0.0231 H       1  UNL1        0.0231
     18 H           0.6224    0.5145   -0.9782 H       1  UNL1        0.0231
     19 H           2.8557   -0.3972    0.8217 H       1  UNL1        0.0295
     20 H           2.8557    1.0659   -0.1334 H       1  UNL1        0.0295
     21 H           2.6490   -0.2688   -2.1782 H       1  UNL1        0.0696
     22 H           2.6490   -1.7319   -1.2232 H       1  UNL1        0.0696
     23 H           7.0919   -0.9083   -1.5597 H       1  UNL1        0.0654
     24 H           6.7800   -2.5671   -4.1010 H       1  UNL1        0.0621
     25 H          10.1114   -0.5965   -2.6803 H       1  UNL1        0.0328
     26 H          10.1114   -2.0597   -1.7252 H       1  UNL1        0.0328
     27 H           7.8933   -1.4901   -0.8527 H       1  UNL1        0.0465
     28 H           7.8933   -0.0270   -1.8077 H       1  UNL1        0.0465
     29 H          10.2280   -0.0317   -0.2167 H       1  UNL1        0.1484
     30 H           7.4765    0.6641    0.8494 H       1  UNL1        0.1251
     31 H          10.2810   -3.0994   -4.9165 H       1  UNL1        0.0621
     32 H           3.4660   -2.2994   -3.6909 H       1  UNL1        0.0654
@<TRIPOS>BOND
     1     1     2    1
     2     2     3    1
     3     3     4    1
     4     4     5    1
     5     5     6   ar
     6     6     7   ar
     7     7     8   ar
     8     8     9    1
     9     9    10    1
    10    10    11    1
    11    11    12   am
    12    12    13    2
    13     8    14   ar
    14    14    15   ar
    15     5    15   ar
    16     1    16    1
    17     1    17    1
    18     1    18    1
    19     2    19    1
    20     2    20    1
    21     3    21    1
    22     3    22    1
    23     6    23    1
    24     7    24    1
    25     9    25    1
    26     9    26    1
    27    10    27    1
    28    10    28    1
    29    11    29    1
    30    12    30    1
    31    14    31    1
    32    15    32    1
