@<TRIPOS>MOLECULE
*****
 19 18 0 0 0
SMALL
GASTEIGER

@<TRIPOS>ATOM
      1 C           0.9551    0.0379    0.0809 C.3     1  UNL1       -0.0416
      2 C           2.4751    0.0379    0.0809 C.3     1  UNL1        0.0449
      3 O           2.9484   -0.7044   -1.0332 O.3     1  UNL1       -0.3778
      4 C           4.3684   -0.7044   -1.0332 C.3     1  UNL1        0.0710
      5 C           4.8751   -1.4991   -2.2258 C.3     1  UNL1        0.0706
      6 O           6.2951   -1.4991   -2.2258 O.3     1  UNL1       -0.3807
      7 C           6.7684   -2.2414   -3.3399 C.3     1  UNL1        0.0365
      8 H           0.5984    0.5973    0.9204 H       1  UNL1        0.0252
      9 H           0.5984   -0.9688    0.1456 H       1  UNL1        0.0252
     10 H           0.5984    0.4853   -0.8233 H       1  UNL1        0.0252
     11 H           2.8318   -0.4094    0.9851 H       1  UNL1        0.0557
     12 H           2.8318    1.0446    0.0162 H       1  UNL1        0.0557
     13 H           4.7251   -1.1518   -0.1290 H       1  UNL1        0.0583
     14 H           4.7251    0.3023   -1.0979 H       1  UNL1        0.0583
     15 H           4.5184   -1.0517   -3.1300 H       1  UNL1        0.0582
     16 H           4.5184   -2.5058   -2.1611 H       1  UNL1        0.0582
     17 H           7.8384   -2.2414   -3.3399 H       1  UNL1        0.0524
     18 H           6.4117   -1.7940   -4.2441 H       1  UNL1        0.0524
     19 H           6.4117   -3.2481   -3.2753 H       1  UNL1        0.0524
@<TRIPOS>BOND
     1     1     2    1
     2     2     3    1
     3     3     4    1
     4     4     5    1
     5     5     6    1
     6     6     7    1
     7     1     8    1
     8     1     9    1
     9     1    10    1
    10     2    11    1
    11     2    12    1
    12     4    13    1
    13     4    14    1
    14     5    15    1
    15     5    16    1
    16     7    17    1
    17     7    18    1
    18     7    19    1
