@<TRIPOS>MOLECULE
*****
 43 42 0 0 0
SMALL
GASTEIGER

@<TRIPOS>ATOM
      1 C           0.9975    0.0870    0.0493 C.3     1  UNL1       -0.0653
      2 C           2.5175    0.0870    0.0493 C.3     1  UNL1       -0.0559
      3 C           3.0241    0.5318    1.4116 C.3     1  UNL1       -0.0533
      4 C           4.5441    0.5318    1.4116 C.3     1  UNL1       -0.0531
      5 C           5.0508    0.9767    2.7738 C.3     1  UNL1       -0.0531
      6 C           6.5708    0.9767    2.7738 C.3     1  UNL1       -0.0531
      7 C           7.0775    1.4216    4.1361 C.3     1  UNL1       -0.0531
      8 C           8.5975    1.4216    4.1361 C.3     1  UNL1       -0.0531
      9 C           9.1041    1.8664    5.4984 C.3     1  UNL1       -0.0531
     10 C          10.6241    1.8664    5.4984 C.3     1  UNL1       -0.0530
     11 C          11.1308    2.3113    6.8607 C.3     1  UNL1       -0.0527
     12 C          12.6508    2.3113    6.8607 C.3     1  UNL1       -0.0466
     13 C          13.1575    2.7561    8.2229 C.3     1  UNL1        0.0028
     14 C          14.6775    2.7561    8.2229 C.2     1  UNL1        0.1203
     15 O          15.3129    3.0978    9.2692 O.2     1  UNL1       -0.3010
     16 H           0.6408   -0.2262   -0.9097 H       1  UNL1        0.0230
     17 H           0.6408    1.0740    0.2576 H       1  UNL1        0.0230
     18 H           0.6408   -0.5869    0.8000 H       1  UNL1        0.0230
     19 H           2.8742    0.7609   -0.7014 H       1  UNL1        0.0263
     20 H           2.8742   -0.9001   -0.1590 H       1  UNL1        0.0263
     21 H           2.6675   -0.1421    2.1622 H       1  UNL1        0.0265
     22 H           2.6675    1.5189    1.6198 H       1  UNL1        0.0265
     23 H           4.9008    1.2058    0.6609 H       1  UNL1        0.0265
     24 H           4.9008   -0.4552    1.2033 H       1  UNL1        0.0265
     25 H           4.6941    0.3028    3.5245 H       1  UNL1        0.0265
     26 H           4.6941    1.9638    2.9821 H       1  UNL1        0.0265
     27 H           6.9275    1.6506    2.0231 H       1  UNL1        0.0265
     28 H           6.9275   -0.0104    2.5655 H       1  UNL1        0.0265
     29 H           6.7208    0.7477    4.8868 H       1  UNL1        0.0265
     30 H           6.7208    2.4086    4.3444 H       1  UNL1        0.0265
     31 H           8.9541    2.0955    3.3854 H       1  UNL1        0.0265
     32 H           8.9541    0.4345    3.9278 H       1  UNL1        0.0265
     33 H           8.7475    1.1925    6.2491 H       1  UNL1        0.0265
     34 H           8.7475    2.8535    5.7067 H       1  UNL1        0.0265
     35 H          10.9808    2.5403    4.7477 H       1  UNL1        0.0265
     36 H          10.9808    0.8794    5.2901 H       1  UNL1        0.0265
     37 H          10.7741    1.6374    7.6113 H       1  UNL1        0.0265
     38 H          10.7741    3.2984    7.0689 H       1  UNL1        0.0265
     39 H          13.0075    2.9852    6.1100 H       1  UNL1        0.0269
     40 H          13.0075    1.3242    6.6524 H       1  UNL1        0.0269
     41 H          12.8008    2.0822    8.9736 H       1  UNL1        0.0339
     42 H          12.8008    3.7432    8.4312 H       1  UNL1        0.0339
     43 H          15.1935    2.4787    7.3733 H       1  UNL1        0.1026
@<TRIPOS>BOND
     1     1     2    1
     2     2     3    1
     3     3     4    1
     4     4     5    1
     5     5     6    1
     6     6     7    1
     7     7     8    1
     8     8     9    1
     9     9    10    1
    10    10    11    1
    11    11    12    1
    12    12    13    1
    13    13    14    1
    14    14    15    2
    15     1    16    1
    16     1    17    1
    17     1    18    1
    18     2    19    1
    19     2    20    1
    20     3    21    1
    21     3    22    1
    22     4    23    1
    23     4    24    1
    24     5    25    1
    25     5    26    1
    26     6    27    1
    27     6    28    1
    28     7    29    1
    29     7    30    1
    30     8    31    1
    31     8    32    1
    32     9    33    1
    33     9    34    1
    34    10    35    1
    35    10    36    1
    36    11    37    1
    37    11    38    1
    38    12    39    1
    39    12    40    1
    40    13    41    1
    41    13    42    1
    42    14    43    1
