@<TRIPOS>MOLECULE
*****
 12 11 0 0 0
SMALL
GASTEIGER

@<TRIPOS>ATOM
      1 C           1.0411    0.0652    0.0637 C.1     1  UNL1       -0.1191
      2 C           2.3450    0.0652    0.0637 C.1     1  UNL1       -0.1043
      3 C           3.8650    0.0652    0.0637 C.3     1  UNL1        0.0212
      4 C           4.3716    1.2182   -0.7874 C.3     1  UNL1        0.0039
      5 N           5.8416    1.2182   -0.7874 N.3     1  UNL1       -0.3291
      6 H           0.0471    0.0652    0.0637 H       1  UNL1        0.1228
      7 H           4.2216   -0.8594   -0.3397 H       1  UNL1        0.0410
      8 H           4.2216    0.1783    1.0661 H       1  UNL1        0.0410
      9 H           4.0149    2.1429   -0.3841 H       1  UNL1        0.0431
     10 H           4.0149    1.1052   -1.7899 H       1  UNL1        0.0431
     11 H           6.1816    1.3260    0.1682 H       1  UNL1        0.1182
     12 H           6.1816    1.9919   -1.3585 H       1  UNL1        0.1182
@<TRIPOS>BOND
     1     1     2    3
     2     2     3    1
     3     3     4    1
     4     4     5    1
     5     1     6    1
     6     3     7    1
     7     3     8    1
     8     4     9    1
     9     4    10    1
    10     5    11    1
    11     5    12    1
