@<TRIPOS>MOLECULE
*****
 43 42 0 0 0
SMALL
GASTEIGER

@<TRIPOS>ATOM
      1 C           1.0804   -0.0059    0.0592 C.3     1  UNL1       -0.0416
      2 C           2.6004   -0.0059    0.0592 C.3     1  UNL1        0.0449
      3 O           3.0737   -0.6838    1.2137 O.3     1  UNL1       -0.3778
      4 C           4.4937   -0.6838    1.2137 C.3     1  UNL1        0.0710
      5 C           5.0004   -1.4095    2.4494 C.3     1  UNL1        0.0711
      6 O           6.4204   -1.4095    2.4494 O.3     1  UNL1       -0.3752
      7 C           6.8937   -2.0874    3.6039 C.3     1  UNL1        0.0711
      8 C           8.4137   -2.0874    3.6039 C.3     1  UNL1        0.0711
      9 O           8.8870   -2.7653    4.7583 O.3     1  UNL1       -0.3752
     10 C          10.3070   -2.7653    4.7583 C.3     1  UNL1        0.0711
     11 C          10.8137   -3.4910    5.9941 C.3     1  UNL1        0.0711
     12 O          12.2337   -3.4910    5.9941 O.3     1  UNL1       -0.3752
     13 C          12.7070   -4.1689    7.1486 C.3     1  UNL1        0.0711
     14 C          14.2270   -4.1689    7.1486 C.3     1  UNL1        0.0710
     15 O          14.7003   -4.8468    8.3030 O.3     1  UNL1       -0.3778
     16 C          16.1203   -4.8468    8.3030 C.3     1  UNL1        0.0449
     17 C          16.6270   -5.5725    9.5388 C.3     1  UNL1       -0.0416
     18 H           0.7237    0.5049   -0.8107 H       1  UNL1        0.0252
     19 H           0.7237    0.4921    0.9365 H       1  UNL1        0.0252
     20 H           0.7237   -1.0147    0.0518 H       1  UNL1        0.0252
     21 H           2.9570    1.0029    0.0666 H       1  UNL1        0.0557
     22 H           2.9570   -0.5038   -0.8181 H       1  UNL1        0.0557
     23 H           4.8504    0.3250    1.2211 H       1  UNL1        0.0583
     24 H           4.8504   -1.1818    0.3363 H       1  UNL1        0.0583
     25 H           4.6437   -2.4183    2.4420 H       1  UNL1        0.0583
     26 H           4.6437   -0.9115    3.3268 H       1  UNL1        0.0583
     27 H           6.5370   -3.0962    3.5964 H       1  UNL1        0.0583
     28 H           6.5370   -1.5894    4.4812 H       1  UNL1        0.0583
     29 H           8.7704   -1.0786    3.6113 H       1  UNL1        0.0583
     30 H           8.7704   -2.5853    2.7265 H       1  UNL1        0.0583
     31 H          10.6637   -1.7565    4.7658 H       1  UNL1        0.0583
     32 H          10.6637   -3.2633    3.8810 H       1  UNL1        0.0583
     33 H          10.4570   -4.4998    5.9867 H       1  UNL1        0.0583
     34 H          10.4570   -2.9930    6.8715 H       1  UNL1        0.0583
     35 H          12.3503   -5.1777    7.1411 H       1  UNL1        0.0583
     36 H          12.3503   -3.6710    8.0259 H       1  UNL1        0.0583
     37 H          14.5837   -3.1601    7.1560 H       1  UNL1        0.0583
     38 H          14.5837   -4.6669    6.2712 H       1  UNL1        0.0583
     39 H          16.4770   -3.8381    8.3105 H       1  UNL1        0.0557
     40 H          16.4770   -5.3448    7.4257 H       1  UNL1        0.0557
     41 H          16.2703   -5.0745   10.4161 H       1  UNL1        0.0252
     42 H          17.6970   -5.5725    9.5388 H       1  UNL1        0.0252
     43 H          16.2703   -6.5813    9.5314 H       1  UNL1        0.0252
@<TRIPOS>BOND
     1     1     2    1
     2     2     3    1
     3     3     4    1
     4     4     5    1
     5     5     6    1
     6     6     7    1
     7     7     8    1
     8     8     9    1
     9     9    10    1
    10    10    11    1
    11    11    12    1
    12    12    13    1
    13    13    14    1
    14    14    15    1
    15    15    16    1
    16    16    17    1
    17     1    18    1
    18     1    19    1
    19     1    20    1
    20     2    21    1
    21     2    22    1
    22     4    23    1
    23     4    24    1
    24     5    25    1
    25     5    26    1
    26     7    27    1
    27     7    28    1
    28     8    29    1
    29     8    30    1
    30    10    31    1
    31    10    32    1
    32    11    33    1
    33    11    34    1
    34    13    35    1
    35    13    36    1
    36    14    37    1
    37    14    38    1
    38    16    39    1
    39    16    40    1
    40    17    41    1
    41    17    42    1
    42    17    43    1
