@<TRIPOS>MOLECULE
*****
 34 33 0 0 0
SMALL
GASTEIGER

@<TRIPOS>ATOM
      1 O           0.9076    0.0379    0.0053 O.2     1  UNL1       -0.2795
      2 C           2.1785    0.0379    0.0053 C.2     1  UNL1        0.2000
      3 N           2.9135    0.1659    1.2719 N.am    1  UNL1       -0.3157
      4 C           4.3835    0.1659    1.2719 C.3     1  UNL1        0.0348
      5 C           4.8902    0.3100    2.6977 C.3     1  UNL1        0.0632
      6 O           6.3102    0.3100    2.6977 O.3     1  UNL1       -0.3760
      7 C           6.7835    0.4446    4.0297 C.3     1  UNL1        0.0711
      8 C           8.3035    0.4446    4.0297 C.3     1  UNL1        0.0711
      9 O           8.7768    0.5792    5.3618 O.3     1  UNL1       -0.3760
     10 C          10.1968    0.5792    5.3618 C.3     1  UNL1        0.0633
     11 C          10.7035    0.7233    6.7876 C.3     1  UNL1        0.0351
     12 N          12.1735    0.7233    6.7876 N.am    1  UNL1       -0.3112
     13 C          12.9085    0.8513    8.0542 C.2     1  UNL1        0.2386
     14 O          12.2730    0.9620    9.1492 O.2     1  UNL1       -0.2733
     15 C          14.4285    0.8513    8.0542 C.3     1  UNL1        0.1202
     16 O          14.9018    0.9859    9.3862 O.3     1  UNL1       -0.3858
     17 H           2.6945   -0.0520   -0.8839 H       1  UNL1        0.1251
     18 H           2.4213    0.2516    2.1202 H       1  UNL1        0.1485
     19 H           4.7402    0.9844    0.6822 H       1  UNL1        0.0484
     20 H           4.7402   -0.7540    0.8579 H       1  UNL1        0.0484
     21 H           4.5335   -0.5085    3.2874 H       1  UNL1        0.0575
     22 H           4.5335    1.2299    3.1117 H       1  UNL1        0.0575
     23 H           6.4268   -0.3739    4.6194 H       1  UNL1        0.0583
     24 H           6.4268    1.3645    4.4437 H       1  UNL1        0.0583
     25 H           8.6602    1.2631    3.4401 H       1  UNL1        0.0583
     26 H           8.6602   -0.4753    3.6157 H       1  UNL1        0.0583
     27 H          10.5535    1.3977    4.7721 H       1  UNL1        0.0575
     28 H          10.5535   -0.3407    4.9478 H       1  UNL1        0.0575
     29 H          10.3468   -0.0952    7.3773 H       1  UNL1        0.0484
     30 H          10.3468    1.6433    7.2016 H       1  UNL1        0.0484
     31 H          12.6657    0.6376    5.9393 H       1  UNL1        0.1488
     32 H          14.7852    1.6698    7.4645 H       1  UNL1        0.0654
     33 H          14.7852   -0.0686    7.6402 H       1  UNL1        0.0654
     34 H          14.5785    1.8199    9.7615 H       1  UNL1        0.2100
@<TRIPOS>BOND
     1     1     2    2
     2     2     3   am
     3     3     4    1
     4     4     5    1
     5     5     6    1
     6     6     7    1
     7     7     8    1
     8     8     9    1
     9     9    10    1
    10    10    11    1
    11    11    12    1
    12    12    13   am
    13    13    14    2
    14    13    15    1
    15    15    16    1
    16     2    17    1
    17     3    18    1
    18     4    19    1
    19     4    20    1
    20     5    21    1
    21     5    22    1
    22     7    23    1
    23     7    24    1
    24     8    25    1
    25     8    26    1
    26    10    27    1
    27    10    28    1
    28    11    29    1
    29    11    30    1
    30    12    31    1
    31    15    32    1
    32    15    33    1
    33    16    34    1
