@<TRIPOS>MOLECULE
*****
 35 34 0 0 0
SMALL
GASTEIGER

@<TRIPOS>ATOM
      1 N           0.9325   -0.0287    0.0680 N.3     1  UNL1       -0.3279
      2 C           2.4025   -0.0287    0.0680 C.3     1  UNL1        0.0166
      3 C           2.9092    1.0870    0.9674 C.3     1  UNL1        0.0600
      4 O           4.3292    1.0870    0.9674 O.3     1  UNL1       -0.3763
      5 C           4.8025    2.1293    1.8077 C.3     1  UNL1        0.0711
      6 C           6.3225    2.1293    1.8077 C.3     1  UNL1        0.0711
      7 O           6.7958    3.1715    2.6480 O.3     1  UNL1       -0.3752
      8 C           8.2158    3.1715    2.6480 C.3     1  UNL1        0.0711
      9 C           8.7225    4.2872    3.5474 C.3     1  UNL1        0.0711
     10 O          10.1425    4.2872    3.5474 O.3     1  UNL1       -0.3760
     11 C          10.6158    5.3294    4.3877 C.3     1  UNL1        0.0632
     12 C          12.1358    5.3294    4.3877 C.3     1  UNL1        0.0348
     13 N          12.6258    6.4084    5.2576 N.am    1  UNL1       -0.3157
     14 C          14.0711    6.6175    5.4262 C.2     1  UNL1        0.2000
     15 O          14.4947    7.5503    6.1782 O.2     1  UNL1       -0.2795
     16 H           0.5925   -0.7773   -0.5356 H       1  UNL1        0.1183
     17 H           0.5925    0.8684   -0.2786 H       1  UNL1        0.1183
     18 H           2.7592    0.1270   -0.9287 H       1  UNL1        0.0444
     19 H           2.7592   -0.9697    0.4316 H       1  UNL1        0.0444
     20 H           2.5525    0.9313    1.9642 H       1  UNL1        0.0572
     21 H           2.5525    2.0280    0.6039 H       1  UNL1        0.0572
     22 H           4.4458    1.9736    2.8044 H       1  UNL1        0.0583
     23 H           4.4458    3.0703    1.4442 H       1  UNL1        0.0583
     24 H           6.6792    2.2849    0.8110 H       1  UNL1        0.0583
     25 H           6.6792    1.1882    2.1713 H       1  UNL1        0.0583
     26 H           8.5725    3.3272    1.6513 H       1  UNL1        0.0583
     27 H           8.5725    2.2305    3.0115 H       1  UNL1        0.0583
     28 H           8.3658    4.1315    4.5442 H       1  UNL1        0.0583
     29 H           8.3658    5.2282    3.1839 H       1  UNL1        0.0583
     30 H          10.2591    5.1738    5.3844 H       1  UNL1        0.0575
     31 H          10.2591    6.2705    4.0241 H       1  UNL1        0.0575
     32 H          12.4925    5.4851    3.3910 H       1  UNL1        0.0484
     33 H          12.4925    4.3884    4.7513 H       1  UNL1        0.0484
     34 H          11.9860    6.9909    5.7272 H       1  UNL1        0.1485
     35 H          14.7417    6.0069    4.9338 H       1  UNL1        0.1251
@<TRIPOS>BOND
     1     1     2    1
     2     2     3    1
     3     3     4    1
     4     4     5    1
     5     5     6    1
     6     6     7    1
     7     7     8    1
     8     8     9    1
     9     9    10    1
    10    10    11    1
    11    11    12    1
    12    12    13    1
    13    13    14   am
    14    14    15    2
    15     1    16    1
    16     1    17    1
    17     2    18    1
    18     2    19    1
    19     3    20    1
    20     3    21    1
    21     5    22    1
    22     5    23    1
    23     6    24    1
    24     6    25    1
    25     8    26    1
    26     8    27    1
    27     9    28    1
    28     9    29    1
    29    11    30    1
    30    11    31    1
    31    12    32    1
    32    12    33    1
    33    13    34    1
    34    14    35    1
