@<TRIPOS>MOLECULE
*****
 92 94 0 0 0
SMALL
GASTEIGER

@<TRIPOS>ATOM
      1 C           1.0892   -0.0311    0.0328 C.3     1  UNL1       -0.0652
      2 C           2.6092   -0.0311    0.0328 C.3     1  UNL1       -0.0545
      3 C           3.1158   -1.3263   -0.5805 C.3     1  UNL1       -0.0373
      4 C           4.6358   -1.3263   -0.5805 C.3     1  UNL1        0.0165
      5 N           5.1258   -2.5789   -1.1736 N.am    1  UNL1       -0.2811
      6 C           4.1706   -3.5887   -1.6518 C.3     1  UNL1        0.0412
      7 C           2.7521   -3.0951   -1.4181 C.ar    1  UNL1       -0.0301
      8 C           1.6319   -3.9132   -1.8055 C.ar    1  UNL1       -0.0571
      9 C           0.2879   -3.4455   -1.5840 C.ar    1  UNL1       -0.0615
     10 C          -0.8322   -4.2636   -1.9715 C.ar    1  UNL1       -0.0617
     11 C          -2.1763   -3.7959   -1.7500 C.ar    1  UNL1       -0.0615
     12 C           2.5282   -1.8093   -0.8092 C.ar    1  UNL1       -0.0571
     13 C           6.5711   -2.8216   -1.2886 C.2     1  UNL1        0.3067
     14 O           7.3970   -1.9486   -0.8752 O.2     1  UNL1       -0.2523
     15 N           7.0611   -4.0742   -1.8818 N.am    1  UNL1       -0.2693
     16 C           8.5063   -4.3170   -1.9967 C.ar    1  UNL1        0.0350
     17 C           8.9864   -5.5442   -2.5779 C.ar    1  UNL1       -0.0370
     18 C          10.4023   -5.7820   -2.6905 C.ar    1  UNL1       -0.0182
     19 C          10.8824   -7.0092   -3.2716 C.ar    1  UNL1        0.1206
     20 O           9.9596   -7.9847   -3.7336 O.3     1  UNL1       -0.4920
     21 C           8.5636   -7.7502   -3.6225 C.3     1  UNL1        0.0896
     22 C           7.8036   -8.9399   -4.1859 C.3     1  UNL1       -0.0186
     23 C           6.3091   -8.6889   -4.0670 C.3     1  UNL1       -0.0500
     24 C           5.5491   -9.8786   -4.6304 C.3     1  UNL1       -0.0530
     25 C           4.0547   -9.6275   -4.5115 C.3     1  UNL1       -0.0531
     26 C           3.2947  -10.8172   -5.0749 C.3     1  UNL1       -0.0531
     27 C           1.8003  -10.5662   -4.9560 C.3     1  UNL1       -0.0531
     28 C           1.0403  -11.7559   -5.5194 C.3     1  UNL1       -0.0530
     29 C          -0.4541  -11.5049   -5.4006 C.3     1  UNL1       -0.0514
     30 C          -1.2141  -12.6946   -5.9639 C.3     1  UNL1       -0.0333
     31 C          -2.7085  -12.4436   -5.8451 C.3     1  UNL1        0.0432
     32 N          -3.4435  -13.5941   -6.3899 N.ar    1  UNL1       -0.2515
     33 C          -4.8363  -13.5941   -6.3899 C.ar    1  UNL1        0.0486
     34 C          -5.5564  -14.7214   -6.9237 C.ar    1  UNL1        0.0828
     35 C          -4.7964  -15.9111   -7.4871 C.3     1  UNL1       -0.0074
     36 C          -3.3020  -15.6600   -7.3682 C.3     1  UNL1       -0.0504
     37 C          -2.5420  -16.8498   -7.9316 C.3     1  UNL1       -0.0649
     38 N          -6.9492  -14.7214   -6.9237 N.ar    1  UNL1       -0.1345
     39 N          -2.7708  -14.6472   -6.8886 N.ar    1  UNL1       -0.0655
     40 C          12.2984   -7.2471   -3.3843 C.ar    1  UNL1       -0.0182
     41 C           9.4422   -3.3277   -1.5282 C.ar    1  UNL1       -0.0370
     42 H           0.7325    0.8807    0.4646 H       1  UNL1        0.0230
     43 H           0.7325   -0.8609    0.6066 H       1  UNL1        0.0230
     44 H           0.7325   -0.1131   -0.9726 H       1  UNL1        0.0230
     45 H           2.9659    0.0509    1.0383 H       1  UNL1        0.0263
     46 H           2.9659    0.7987   -0.5409 H       1  UNL1        0.0263
     47 H           2.7592   -1.4082   -1.5860 H       1  UNL1        0.0280
     48 H           2.7592   -2.1561   -0.0068 H       1  UNL1        0.0280
     49 H           4.9925   -1.2443    0.4250 H       1  UNL1        0.0465
     50 H           4.9925   -0.4965   -1.1542 H       1  UNL1        0.0465
     51 H           4.3222   -4.5038   -1.1186 H       1  UNL1        0.0514
     52 H           4.3222   -3.7560   -2.6977 H       1  UNL1        0.0514
     53 H           1.7923   -4.8346   -2.2418 H       1  UNL1        0.0621
     54 H           0.1275   -2.5241   -1.1477 H       1  UNL1        0.0618
     55 H          -0.6718   -5.1850   -2.4078 H       1  UNL1        0.0618
     56 H          -3.2076   -3.8284   -1.7653 H       1  UNL1        0.0618
     57 H           3.0128   -0.9858   -0.4192 H       1  UNL1        0.0621
     58 H           6.4213   -4.7505   -2.2020 H       1  UNL1        0.1564
     59 H           8.3158   -6.2531   -2.9136 H       1  UNL1        0.0637
     60 H          11.0730   -5.0731   -2.3548 H       1  UNL1        0.0655
     61 H           8.3051   -6.8692   -4.1720 H       1  UNL1        0.0696
     62 H           8.3051   -7.6170   -2.5928 H       1  UNL1        0.0696
     63 H           8.0620   -9.8209   -3.6364 H       1  UNL1        0.0298
     64 H           8.0620   -9.0731   -5.2156 H       1  UNL1        0.0298
     65 H           6.0507   -7.8078   -4.6165 H       1  UNL1        0.0266
     66 H           6.0507   -8.5557   -3.0373 H       1  UNL1        0.0266
     67 H           5.8076  -10.7596   -4.0810 H       1  UNL1        0.0265
     68 H           5.8076  -10.0118   -5.6601 H       1  UNL1        0.0265
     69 H           3.7963   -8.7465   -5.0610 H       1  UNL1        0.0265
     70 H           3.7962   -9.4943   -3.4818 H       1  UNL1        0.0265
     71 H           3.5532  -11.6982   -4.5255 H       1  UNL1        0.0265
     72 H           3.5532  -10.9504   -6.1046 H       1  UNL1        0.0265
     73 H           1.5418   -9.6852   -5.5055 H       1  UNL1        0.0265
     74 H           1.5418  -10.4330   -3.9263 H       1  UNL1        0.0265
     75 H           1.2988  -12.6369   -4.9700 H       1  UNL1        0.0265
     76 H           1.2988  -11.8891   -6.5492 H       1  UNL1        0.0265
     77 H          -0.7126  -10.6239   -5.9500 H       1  UNL1        0.0266
     78 H          -0.7126  -11.3717   -4.3708 H       1  UNL1        0.0266
     79 H          -0.9556  -13.5756   -5.4145 H       1  UNL1        0.0283
     80 H          -0.9556  -12.8278   -6.9937 H       1  UNL1        0.0283
     81 H          -2.9670  -11.5625   -6.3945 H       1  UNL1        0.0509
     82 H          -2.9670  -12.3104   -4.8153 H       1  UNL1        0.0509
     83 H          -5.3523  -12.7864   -6.0074 H       1  UNL1        0.0845
     84 H          -5.0549  -16.0443   -8.5168 H       1  UNL1        0.0329
     85 H          -5.0549  -16.7921   -6.9376 H       1  UNL1        0.0329
     86 H          -3.0435  -15.5269   -6.3385 H       1  UNL1        0.0266
     87 H          -3.0435  -14.7790   -7.9177 H       1  UNL1        0.0266
     88 H          -2.8005  -17.7308   -7.3822 H       1  UNL1        0.0230
     89 H          -1.4900  -16.6730   -7.8479 H       1  UNL1        0.0230
     90 H          -2.8005  -16.9829   -8.9613 H       1  UNL1        0.0230
     91 H          13.1581   -7.7630   -3.6286 H       1  UNL1        0.0655
     92 H           9.5067   -2.3968   -1.0874 H       1  UNL1        0.0637
@<TRIPOS>BOND
     1     1     2    1
     2     2     3    1
     3     3     4    1
     4     4     5    1
     5     5     6    1
     6     6     7    1
     7     7     8   ar
     8     8     9   ar
     9     9    10   ar
    10    10    11   ar
    11    11    12   ar
    12     7    12   ar
    13     5    13   am
    14    13    14    2
    15    13    15   am
    16    15    16    1
    17    16    17   ar
    18    17    18   ar
    19    18    19   ar
    20    19    20    1
    21    20    21    1
    22    21    22    1
    23    22    23    1
    24    23    24    1
    25    24    25    1
    26    25    26    1
    27    26    27    1
    28    27    28    1
    29    28    29    1
    30    29    30    1
    31    30    31    1
    32    31    32    1
    33    32    33   ar
    34    33    34   ar
    35    34    35    1
    36    35    36    1
    37    36    37    1
    38    34    38   ar
    39    38    39   ar
    40    32    39   ar
    41    19    40   ar
    42    40    41   ar
    43    16    41   ar
    44     1    42    1
    45     1    43    1
    46     1    44    1
    47     2    45    1
    48     2    46    1
    49     3    47    1
    50     3    48    1
    51     4    49    1
    52     4    50    1
    53     6    51    1
    54     6    52    1
    55     8    53    1
    56     9    54    1
    57    10    55    1
    58    11    56    1
    59    12    57    1
    60    15    58    1
    61    17    59    1
    62    18    60    1
    63    21    61    1
    64    21    62    1
    65    22    63    1
    66    22    64    1
    67    23    65    1
    68    23    66    1
    69    24    67    1
    70    24    68    1
    71    25    69    1
    72    25    70    1
    73    26    71    1
    74    26    72    1
    75    27    73    1
    76    27    74    1
    77    28    75    1
    78    28    76    1
    79    29    77    1
    80    29    78    1
    81    30    79    1
    82    30    80    1
    83    31    81    1
    84    31    82    1
    85    33    83    1
    86    35    84    1
    87    35    85    1
    88    36    86    1
    89    36    87    1
    90    37    88    1
    91    37    89    1
    92    37    90    1
    93    40    91    1
    94    41    92    1
