@<TRIPOS>MOLECULE
*****
 38 37 0 0 0
SMALL
GASTEIGER

@<TRIPOS>ATOM
      1 C           0.9268   -0.0674    0.0098 C.3     1  UNL1       -0.0653
      2 C           2.4468   -0.0674    0.0098 C.3     1  UNL1       -0.0559
      3 C           2.9535   -1.4811    0.2448 C.3     1  UNL1       -0.0529
      4 C           4.4735   -1.4811    0.2448 C.3     1  UNL1       -0.0448
      5 C           4.9801   -2.8948    0.4798 C.3     1  UNL1        0.0241
      6 C           6.5001   -2.8948    0.4798 C.2     1  UNL1        0.2154
      7 O           7.1356   -1.8090    0.2993 O.2     1  UNL1       -0.2756
      8 N           7.2351   -4.1506    0.6885 N.am    1  UNL1       -0.3033
      9 C           6.5001   -5.4064    0.8973 C.3     1  UNL1        0.0032
     10 C           8.7051   -4.1506    0.6885 C.3     1  UNL1        0.0271
     11 C           9.2118   -5.5643    0.9235 C.3     1  UNL1        0.0141
     12 N          10.6818   -5.5643    0.9235 N.3     1  UNL1       -0.3069
     13 C          11.1718   -4.6839    1.9939 C.3     1  UNL1       -0.0130
     14 C          11.1718   -6.9315    1.1508 C.3     1  UNL1       -0.0130
     15 H           0.5702    0.9277   -0.1556 H       1  UNL1        0.0230
     16 H           0.5701   -0.4218    0.9544 H       1  UNL1        0.0230
     17 H           0.5701   -0.7083   -0.7693 H       1  UNL1        0.0230
     18 H           2.8035    0.5734    0.7890 H       1  UNL1        0.0263
     19 H           2.8035    0.2869   -0.9347 H       1  UNL1        0.0263
     20 H           2.5968   -2.1219   -0.5343 H       1  UNL1        0.0265
     21 H           2.5968   -1.8354    1.1893 H       1  UNL1        0.0265
     22 H           4.8301   -0.8403    1.0239 H       1  UNL1        0.0270
     23 H           4.8301   -1.1268   -0.6997 H       1  UNL1        0.0270
     24 H           4.6235   -3.5356   -0.2993 H       1  UNL1        0.0358
     25 H           4.6235   -3.2491    1.4243 H       1  UNL1        0.0358
     26 H           5.4482   -5.2136    0.8652 H       1  UNL1        0.0428
     27 H           6.7586   -5.8167    1.8511 H       1  UNL1        0.0428
     28 H           6.7586   -6.1032    0.1275 H       1  UNL1        0.0428
     29 H           9.0618   -3.5098    1.4677 H       1  UNL1        0.0477
     30 H           9.0618   -3.7963   -0.2560 H       1  UNL1        0.0477
     31 H           8.8551   -6.2051    0.1444 H       1  UNL1        0.0442
     32 H           8.8551   -5.9186    1.8680 H       1  UNL1        0.0442
     33 H          10.8151   -3.6887    1.8285 H       1  UNL1        0.0391
     34 H          12.2418   -4.6839    1.9939 H       1  UNL1        0.0391
     35 H          10.8151   -5.0382    2.9384 H       1  UNL1        0.0391
     36 H          10.8151   -7.5723    0.3716 H       1  UNL1        0.0391
     37 H          10.8151   -7.2858    2.0953 H       1  UNL1        0.0391
     38 H          12.2418   -6.9315    1.1508 H       1  UNL1        0.0391
@<TRIPOS>BOND
     1     1     2    1
     2     2     3    1
     3     3     4    1
     4     4     5    1
     5     5     6    1
     6     6     7    2
     7     6     8   am
     8     8     9    1
     9     8    10    1
    10    10    11    1
    11    11    12    1
    12    12    13    1
    13    12    14    1
    14     1    15    1
    15     1    16    1
    16     1    17    1
    17     2    18    1
    18     2    19    1
    19     3    20    1
    20     3    21    1
    21     4    22    1
    22     4    23    1
    23     5    24    1
    24     5    25    1
    25     9    26    1
    26     9    27    1
    27     9    28    1
    28    10    29    1
    29    10    30    1
    30    11    31    1
    31    11    32    1
    32    13    33    1
    33    13    34    1
    34    13    35    1
    35    14    36    1
    36    14    37    1
    37    14    38    1
