@<TRIPOS>MOLECULE
*****
 41 40 0 0 0
SMALL
GASTEIGER

@<TRIPOS>ATOM
      1 C           1.0146    0.0696   -0.0703 C.3     1  UNL1       -0.0653
      2 C           2.5346    0.0696   -0.0703 C.3     1  UNL1       -0.0559
      3 C           3.0412   -0.8343   -1.1823 C.3     1  UNL1       -0.0533
      4 C           4.5612   -0.8343   -1.1823 C.3     1  UNL1       -0.0531
      5 C           5.0679   -1.7382   -2.2944 C.3     1  UNL1       -0.0531
      6 C           6.5879   -1.7382   -2.2944 C.3     1  UNL1       -0.0530
      7 C           7.0945   -2.6422   -3.4064 C.3     1  UNL1       -0.0516
      8 C           8.6145   -2.6422   -3.4064 C.3     1  UNL1       -0.0374
      9 C           9.1212   -3.5461   -4.5184 C.3     1  UNL1        0.0116
     10 N          10.5912   -3.5461   -4.5184 N.am    1  UNL1       -0.3153
     11 C          11.3262   -4.3491   -5.5063 C.2     1  UNL1        0.2134
     12 O          10.6907   -5.0433   -6.3604 O.2     1  UNL1       -0.2758
     13 C          12.8462   -4.3491   -5.5063 C.3     1  UNL1        0.0303
     14 C          13.3529   -5.2530   -6.6183 C.3     1  UNL1        0.0110
     15 C          14.8729   -5.2530   -6.6183 C.2     1  UNL1        0.1208
     16 O          15.5083   -5.9472   -7.4724 O.2     1  UNL1       -0.3010
     17 H           0.6579    0.7059    0.7125 H       1  UNL1        0.0230
     18 H           0.6579   -0.9265    0.0894 H       1  UNL1        0.0230
     19 H           0.6579    0.4294   -1.0128 H       1  UNL1        0.0230
     20 H           2.8912   -0.2902    0.8722 H       1  UNL1        0.0263
     21 H           2.8912    1.0657   -0.2300 H       1  UNL1        0.0263
     22 H           2.6845   -0.4745   -2.1248 H       1  UNL1        0.0265
     23 H           2.6845   -1.8304   -1.0227 H       1  UNL1        0.0265
     24 H           4.9179   -1.1941   -0.2399 H       1  UNL1        0.0265
     25 H           4.9179    0.1618   -1.3420 H       1  UNL1        0.0265
     26 H           4.7112   -1.3785   -3.2368 H       1  UNL1        0.0265
     27 H           4.7112   -2.7343   -2.1347 H       1  UNL1        0.0265
     28 H           6.9445   -2.0980   -1.3519 H       1  UNL1        0.0265
     29 H           6.9445   -0.7421   -2.4540 H       1  UNL1        0.0265
     30 H           6.7379   -2.2824   -4.3489 H       1  UNL1        0.0266
     31 H           6.7379   -3.6382   -3.2468 H       1  UNL1        0.0266
     32 H           8.9712   -3.0019   -2.4639 H       1  UNL1        0.0280
     33 H           8.9712   -1.6461   -3.5661 H       1  UNL1        0.0280
     34 H           8.7645   -3.1863   -5.4609 H       1  UNL1        0.0462
     35 H           8.7645   -4.5422   -4.3588 H       1  UNL1        0.0462
     36 H          11.0834   -3.0083   -3.8568 H       1  UNL1        0.1487
     37 H          13.2029   -4.7088   -4.5638 H       1  UNL1        0.0362
     38 H          13.2029   -3.3530   -5.6660 H       1  UNL1        0.0362
     39 H          12.9962   -4.8932   -7.5608 H       1  UNL1        0.0343
     40 H          12.9962   -6.2491   -6.4587 H       1  UNL1        0.0343
     41 H          15.3889   -4.6893   -5.9248 H       1  UNL1        0.1026
@<TRIPOS>BOND
     1     1     2    1
     2     2     3    1
     3     3     4    1
     4     4     5    1
     5     5     6    1
     6     6     7    1
     7     7     8    1
     8     8     9    1
     9     9    10    1
    10    10    11   am
    11    11    12    2
    12    11    13    1
    13    13    14    1
    14    14    15    1
    15    15    16    2
    16     1    17    1
    17     1    18    1
    18     1    19    1
    19     2    20    1
    20     2    21    1
    21     3    22    1
    22     3    23    1
    23     4    24    1
    24     4    25    1
    25     5    26    1
    26     5    27    1
    27     6    28    1
    28     6    29    1
    29     7    30    1
    30     7    31    1
    31     8    32    1
    32     8    33    1
    33     9    34    1
    34     9    35    1
    35    10    36    1
    36    13    37    1
    37    13    38    1
    38    14    39    1
    39    14    40    1
    40    15    41    1
