@<TRIPOS>MOLECULE
*****
 16 15 0 0 0
SMALL
GASTEIGER

@<TRIPOS>ATOM
      1 C           0.9407    0.0541   -0.0597 C.3     1  UNL1        0.0364
      2 O           2.3607    0.0541   -0.0597 O.3     1  UNL1       -0.3829
      3 C           2.8341    1.2009    0.6312 C.3     1  UNL1        0.0494
      4 C           4.3541    1.2009    0.6312 C.3     1  UNL1       -0.0062
      5 C           4.8607    2.4284    1.3708 C.3     1  UNL1        0.0463
      6 O           6.2807    2.4284    1.3708 O.3     1  UNL1       -0.3949
      7 H           0.5841   -0.8100   -0.5802 H       1  UNL1        0.0523
      8 H           0.5841    0.9370   -0.5477 H       1  UNL1        0.0523
      9 H           0.5841    0.0353    0.9490 H       1  UNL1        0.0523
     10 H           2.4774    1.1821    1.6399 H       1  UNL1        0.0560
     11 H           2.4774    2.0838    0.1432 H       1  UNL1        0.0560
     12 H           4.7107    1.2197   -0.3774 H       1  UNL1        0.0309
     13 H           4.7107    0.3180    1.1193 H       1  UNL1        0.0309
     14 H           4.5040    2.4096    2.3794 H       1  UNL1        0.0558
     15 H           4.5040    3.3113    0.8827 H       1  UNL1        0.0558
     16 H           6.6040    1.6280    1.8132 H       1  UNL1        0.2094
@<TRIPOS>BOND
     1     1     2    1
     2     2     3    1
     3     3     4    1
     4     4     5    1
     5     5     6    1
     6     1     7    1
     7     1     8    1
     8     1     9    1
     9     3    10    1
    10     3    11    1
    11     4    12    1
    12     4    13    1
    13     5    14    1
    14     5    15    1
    15     6    16    1
