@<TRIPOS>MOLECULE
*****
 36 35 0 0 0
SMALL
GASTEIGER

@<TRIPOS>ATOM
      1 C           0.9996    0.0977   -0.0213 C.3     1  UNL1        0.0365
      2 O           2.4196    0.0977   -0.0213 O.3     1  UNL1       -0.3807
      3 C           2.8929   -0.5513   -1.1923 C.3     1  UNL1        0.0706
      4 C           4.4129   -0.5513   -1.1923 C.3     1  UNL1        0.0711
      5 O           4.8863   -1.2002   -2.3633 O.3     1  UNL1       -0.3752
      6 C           6.3063   -1.2002   -2.3633 C.3     1  UNL1        0.0711
      7 C           6.8129   -1.8949   -3.6168 C.3     1  UNL1        0.0711
      8 O           8.2329   -1.8949   -3.6168 O.3     1  UNL1       -0.3762
      9 C           8.7063   -2.5438   -4.7878 C.3     1  UNL1        0.0605
     10 C          10.2263   -2.5438   -4.7878 C.3     1  UNL1        0.0225
     11 N          10.7162   -3.2157   -6.0000 N.3     1  UNL1       -0.2965
     12 C          10.2262   -2.5018   -7.1879 C.3     1  UNL1       -0.0123
     13 C          12.1862   -3.2157   -6.0000 C.3     1  UNL1        0.0541
     14 C          12.6929   -3.9103   -7.2534 C.2     1  UNL1        0.1342
     15 O          13.9424   -4.0229   -7.4566 O.2     1  UNL1       -0.2997
     16 H           0.6429    0.5867    0.8610 H       1  UNL1        0.0524
     17 H           0.6429   -0.9110   -0.0390 H       1  UNL1        0.0524
     18 H           0.6429    0.6173   -0.8860 H       1  UNL1        0.0524
     19 H           2.5363   -0.0316   -2.0570 H       1  UNL1        0.0582
     20 H           2.5363   -1.5599   -1.2100 H       1  UNL1        0.0582
     21 H           4.7696   -1.0709   -0.3277 H       1  UNL1        0.0583
     22 H           4.7696    0.4574   -1.1746 H       1  UNL1        0.0583
     23 H           6.6629   -1.7199   -1.4986 H       1  UNL1        0.0583
     24 H           6.6629   -0.1916   -2.3456 H       1  UNL1        0.0583
     25 H           6.4563   -1.3752   -4.4814 H       1  UNL1        0.0583
     26 H           6.4563   -2.9035   -3.6345 H       1  UNL1        0.0583
     27 H           8.3496   -2.0242   -5.6524 H       1  UNL1        0.0572
     28 H           8.3496   -3.5525   -4.8054 H       1  UNL1        0.0572
     29 H          10.5829   -3.0635   -3.9231 H       1  UNL1        0.0449
     30 H          10.5829   -1.5352   -4.7701 H       1  UNL1        0.0449
     31 H           9.1562   -2.5018   -7.1879 H       1  UNL1        0.0391
     32 H          10.5829   -2.9908   -8.0703 H       1  UNL1        0.0391
     33 H          10.5829   -1.4931   -7.1702 H       1  UNL1        0.0391
     34 H          12.5429   -3.7353   -5.1353 H       1  UNL1        0.0502
     35 H          12.5429   -2.2070   -5.9823 H       1  UNL1        0.0502
     36 H          12.0223   -4.2905   -7.9395 H       1  UNL1        0.1040
@<TRIPOS>BOND
     1     1     2    1
     2     2     3    1
     3     3     4    1
     4     4     5    1
     5     5     6    1
     6     6     7    1
     7     7     8    1
     8     8     9    1
     9     9    10    1
    10    10    11    1
    11    11    12    1
    12    11    13    1
    13    13    14    1
    14    14    15    2
    15     1    16    1
    16     1    17    1
    17     1    18    1
    18     3    19    1
    19     3    20    1
    20     4    21    1
    21     4    22    1
    22     6    23    1
    23     6    24    1
    24     7    25    1
    25     7    26    1
    26     9    27    1
    27     9    28    1
    28    10    29    1
    29    10    30    1
    30    12    31    1
    31    12    32    1
    32    12    33    1
    33    13    34    1
    34    13    35    1
    35    14    36    1
