@<TRIPOS>MOLECULE
*****
 37 36 0 0 0
SMALL
GASTEIGER

@<TRIPOS>ATOM
      1 C           1.0135    0.0926   -0.0352 C.3     1  UNL1       -0.0653
      2 C           2.5335    0.0926   -0.0352 C.3     1  UNL1       -0.0559
      3 C           3.0401   -0.2971    1.3439 C.3     1  UNL1       -0.0533
      4 C           4.5601   -0.2971    1.3439 C.3     1  UNL1       -0.0531
      5 C           5.0668   -0.6868    2.7229 C.3     1  UNL1       -0.0531
      6 C           6.5868   -0.6868    2.7229 C.3     1  UNL1       -0.0530
      7 C           7.0934   -1.0765    4.1020 C.3     1  UNL1       -0.0516
      8 C           8.6134   -1.0765    4.1020 C.3     1  UNL1       -0.0374
      9 C           9.1201   -1.4662    5.4811 C.3     1  UNL1        0.0117
     10 N          10.5901   -1.4662    5.4811 N.am    1  UNL1       -0.3134
     11 C          11.3251   -1.8125    6.7061 C.2     1  UNL1        0.2385
     12 O          10.6897   -2.1118    7.7653 O.2     1  UNL1       -0.2733
     13 C          12.8451   -1.8125    6.7061 C.3     1  UNL1        0.1202
     14 O          13.3184   -2.1765    7.9945 O.3     1  UNL1       -0.3858
     15 H           0.6568    0.3670   -1.0060 H       1  UNL1        0.0230
     16 H           0.6568    0.7962    0.6878 H       1  UNL1        0.0230
     17 H           0.6568   -0.8853    0.2126 H       1  UNL1        0.0230
     18 H           2.8901    1.0705   -0.2830 H       1  UNL1        0.0263
     19 H           2.8901   -0.6109   -0.7582 H       1  UNL1        0.0263
     20 H           2.6835   -1.2750    1.5917 H       1  UNL1        0.0265
     21 H           2.6835    0.4065    2.0669 H       1  UNL1        0.0265
     22 H           4.9168    0.6808    1.0961 H       1  UNL1        0.0265
     23 H           4.9168   -1.0006    0.6209 H       1  UNL1        0.0265
     24 H           4.7101   -1.6647    2.9707 H       1  UNL1        0.0265
     25 H           4.7101    0.0167    3.4459 H       1  UNL1        0.0265
     26 H           6.9435    0.2911    2.4751 H       1  UNL1        0.0265
     27 H           6.9435   -1.3904    2.0000 H       1  UNL1        0.0265
     28 H           6.7368   -2.0544    4.3498 H       1  UNL1        0.0266
     29 H           6.7368   -0.3730    4.8250 H       1  UNL1        0.0266
     30 H           8.9701   -0.0986    3.8542 H       1  UNL1        0.0280
     31 H           8.9701   -1.7801    3.3790 H       1  UNL1        0.0280
     32 H           8.7634   -2.4441    5.7289 H       1  UNL1        0.0462
     33 H           8.7634   -0.7627    6.2040 H       1  UNL1        0.0462
     34 H          11.0824   -1.2344    4.6606 H       1  UNL1        0.1487
     35 H          13.2018   -0.8346    6.4583 H       1  UNL1        0.0654
     36 H          13.2018   -2.5160    5.9832 H       1  UNL1        0.0654
     37 H          12.9951   -1.5387    8.6499 H       1  UNL1        0.2100
@<TRIPOS>BOND
     1     1     2    1
     2     2     3    1
     3     3     4    1
     4     4     5    1
     5     5     6    1
     6     6     7    1
     7     7     8    1
     8     8     9    1
     9     9    10    1
    10    10    11   am
    11    11    12    2
    12    11    13    1
    13    13    14    1
    14     1    15    1
    15     1    16    1
    16     1    17    1
    17     2    18    1
    18     2    19    1
    19     3    20    1
    20     3    21    1
    21     4    22    1
    22     4    23    1
    23     5    24    1
    24     5    25    1
    25     6    26    1
    26     6    27    1
    27     7    28    1
    28     7    29    1
    29     8    30    1
    30     8    31    1
    31     9    32    1
    32     9    33    1
    33    10    34    1
    34    13    35    1
    35    13    36    1
    36    14    37    1
