@<TRIPOS>MOLECULE
*****
 51 51 0 0 0
SMALL
GASTEIGER

@<TRIPOS>ATOM
      1 C           1.0547    0.0810    0.0212 C.3     1  UNL1       -0.0653
      2 C           2.5747    0.0810    0.0212 C.3     1  UNL1       -0.0559
      3 C           3.0813    0.8705    1.2171 C.3     1  UNL1       -0.0533
      4 C           4.6013    0.8705    1.2171 C.3     1  UNL1       -0.0531
      5 C           5.1080    1.6601    2.4131 C.3     1  UNL1       -0.0531
      6 C           6.6280    1.6601    2.4131 C.3     1  UNL1       -0.0531
      7 C           7.1347    2.4496    3.6091 C.3     1  UNL1       -0.0530
      8 C           8.6547    2.4496    3.6091 C.3     1  UNL1       -0.0519
      9 C           9.1613    3.2391    4.8050 C.3     1  UNL1       -0.0402
     10 C          10.6813    3.2391    4.8050 C.3     1  UNL1       -0.0010
     11 N          11.1713    4.0027    5.9616 N.3     1  UNL1       -0.2999
     12 C          12.6413    4.0027    5.9616 C.3     1  UNL1        0.0117
     13 C          13.1480    4.7922    7.1576 C.3     1  UNL1        0.0121
     14 N          14.6180    4.7922    7.1576 N.3     1  UNL1       -0.2932
     15 C          15.1080    5.4121    5.9180 C.3     1  UNL1        0.0544
     16 C          14.6013    4.6226    4.7221 C.2     1  UNL1        0.1342
     17 O          14.9083    4.9869    3.5439 O.2     1  UNL1       -0.2997
     18 C          15.1080    5.5558    8.3142 C.3     1  UNL1        0.0121
     19 C          10.6813    3.3828    7.2012 C.3     1  UNL1        0.0117
     20 H           0.6980   -0.4748   -0.8207 H       1  UNL1        0.0230
     21 H           0.6980    1.0880   -0.0392 H       1  UNL1        0.0230
     22 H           0.6980   -0.3702    0.9234 H       1  UNL1        0.0230
     23 H           2.9313    0.5322   -0.8811 H       1  UNL1        0.0263
     24 H           2.9313   -0.9260    0.0815 H       1  UNL1        0.0263
     25 H           2.7247    0.4193    2.1194 H       1  UNL1        0.0265
     26 H           2.7247    1.8775    1.1567 H       1  UNL1        0.0265
     27 H           4.9580    1.3218    0.3148 H       1  UNL1        0.0265
     28 H           4.9580   -0.1365    1.2775 H       1  UNL1        0.0265
     29 H           4.7513    1.2089    3.3154 H       1  UNL1        0.0265
     30 H           4.7513    2.6671    2.3527 H       1  UNL1        0.0265
     31 H           6.9847    2.1113    1.5108 H       1  UNL1        0.0265
     32 H           6.9847    0.6531    2.4735 H       1  UNL1        0.0265
     33 H           6.7780    1.9984    4.5113 H       1  UNL1        0.0265
     34 H           6.7780    3.4566    3.5487 H       1  UNL1        0.0265
     35 H           9.0113    2.9008    2.7068 H       1  UNL1        0.0266
     36 H           9.0113    1.4426    3.6694 H       1  UNL1        0.0266
     37 H           8.8047    2.7879    5.7073 H       1  UNL1        0.0278
     38 H           8.8047    4.2461    4.7446 H       1  UNL1        0.0278
     39 H          11.0380    3.6903    3.9027 H       1  UNL1        0.0426
     40 H          11.0380    2.2321    4.8654 H       1  UNL1        0.0426
     41 H          12.9980    4.4539    5.0594 H       1  UNL1        0.0439
     42 H          12.9980    2.9957    6.0220 H       1  UNL1        0.0439
     43 H          12.7913    4.3410    8.0599 H       1  UNL1        0.0439
     44 H          12.7913    5.7992    7.0972 H       1  UNL1        0.0439
     45 H          16.1780    5.4121    5.9180 H       1  UNL1        0.0502
     46 H          14.7513    6.4191    5.8577 H       1  UNL1        0.0502
     47 H          14.0080    3.7907    4.8668 H       1  UNL1        0.1040
     48 H          15.2448    6.6164    8.2775 H       1  UNL1        0.0439
     49 H          15.8783    5.5259    9.0562 H       1  UNL1        0.0439
     50 H           9.8006    3.7955    7.6472 H       1  UNL1        0.0439
     51 H          10.3667    2.3740    7.3694 H       1  UNL1        0.0439
@<TRIPOS>BOND
     1     1     2    1
     2     2     3    1
     3     3     4    1
     4     4     5    1
     5     5     6    1
     6     6     7    1
     7     7     8    1
     8     8     9    1
     9     9    10    1
    10    10    11    1
    11    11    12    1
    12    12    13    1
    13    13    14    1
    14    14    15    1
    15    15    16    1
    16    16    17    2
    17    14    18    1
    18    18    19    1
    19    11    19    1
    20     1    20    1
    21     1    21    1
    22     1    22    1
    23     2    23    1
    24     2    24    1
    25     3    25    1
    26     3    26    1
    27     4    27    1
    28     4    28    1
    29     5    29    1
    30     5    30    1
    31     6    31    1
    32     6    32    1
    33     7    33    1
    34     7    34    1
    35     8    35    1
    36     8    36    1
    37     9    37    1
    38     9    38    1
    39    10    39    1
    40    10    40    1
    41    12    41    1
    42    12    42    1
    43    13    43    1
    44    13    44    1
    45    15    45    1
    46    15    46    1
    47    16    47    1
    48    18    48    1
    49    18    49    1
    50    19    50    1
    51    19    51    1
