@<TRIPOS>MOLECULE
*****
 12 11 0 0 0
SMALL
GASTEIGER

@<TRIPOS>ATOM
      1 C           1.0390    0.0676    0.0625 C.3     1  UNL1       -0.0632
      2 C           2.5590    0.0676    0.0625 C.3     1  UNL1       -0.0326
      3 C           3.0656    1.3817    0.6343 C.3     1  UNL1        0.0440
      4 O           4.4856    1.3817    0.6343 O.3     1  UNL1       -0.3950
      5 H           0.6823   -0.8574   -0.3400 H       1  UNL1        0.0230
      6 H           0.6823    0.8787   -0.5373 H       1  UNL1        0.0230
      7 H           0.6823    0.1816    1.0649 H       1  UNL1        0.0230
      8 H           2.9156   -0.0463   -0.9398 H       1  UNL1        0.0285
      9 H           2.9156   -0.7435    0.6624 H       1  UNL1        0.0285
     10 H           2.7090    1.4956    1.6366 H       1  UNL1        0.0557
     11 H           2.7090    2.1928    0.0344 H       1  UNL1        0.0557
     12 H           4.8090    0.6464    1.1781 H       1  UNL1        0.2094
@<TRIPOS>BOND
     1     1     2    1
     2     2     3    1
     3     3     4    1
     4     1     5    1
     5     1     6    1
     6     1     7    1
     7     2     8    1
     8     2     9    1
     9     3    10    1
    10     3    11    1
    11     4    12    1
