@<TRIPOS>MOLECULE
*****
 55 55 0 0 0
SMALL
GASTEIGER

@<TRIPOS>ATOM
      1 C           0.9622    0.0382   -0.0843 C.3     1  UNL1       -0.0416
      2 C           2.4822    0.0382   -0.0843 C.3     1  UNL1        0.0449
      3 O           2.9556   -0.9183    0.8524 O.3     1  UNL1       -0.3778
      4 C           4.3756   -0.9183    0.8524 C.3     1  UNL1        0.0710
      5 C           4.8822   -1.9422    1.8551 C.3     1  UNL1        0.0711
      6 O           6.3022   -1.9422    1.8551 O.3     1  UNL1       -0.3752
      7 C           6.7755   -2.8987    2.7918 C.3     1  UNL1        0.0711
      8 C           8.2955   -2.8987    2.7918 C.3     1  UNL1        0.0711
      9 O           8.7689   -3.8552    3.7286 O.3     1  UNL1       -0.3752
     10 C          10.1889   -3.8552    3.7286 C.3     1  UNL1        0.0711
     11 C          10.6955   -4.8790    4.7313 C.3     1  UNL1        0.0711
     12 O          12.1155   -4.8790    4.7313 O.3     1  UNL1       -0.3757
     13 C          12.5889   -5.8355    5.6680 C.3     1  UNL1        0.0673
     14 C          14.1089   -5.8355    5.6680 C.3     1  UNL1        0.0665
     15 N          14.5989   -6.8257    6.6377 N.ar    1  UNL1       -0.2492
     16 C          15.9682   -7.0075    6.8158 C.ar    1  UNL1        0.0487
     17 C          16.4483   -7.9776    7.7658 C.ar    1  UNL1        0.0829
     18 C          15.4605   -8.8031    8.5742 C.3     1  UNL1       -0.0067
     19 C          14.0421   -8.4129    8.1921 C.3     1  UNL1       -0.0393
     20 C          13.0543   -9.2383    9.0004 C.3     1  UNL1        0.0241
     21 C          11.6358   -8.8481    8.6183 C.2     1  UNL1        0.2105
     22 N          11.4073   -7.8106    7.6022 N.am    1  UNL1       -0.3293
     23 O          10.6473   -9.4188    9.1772 O.2     1  UNL1       -0.2760
     24 N          17.8177   -8.1595    7.9439 N.ar    1  UNL1       -0.1345
     25 N          13.7245   -7.5563    7.3532 N.ar    1  UNL1       -0.0654
     26 H           0.6056    0.7589   -0.7902 H       1  UNL1        0.0252
     27 H           0.6056    0.2891    0.8928 H       1  UNL1        0.0252
     28 H           0.6056   -0.9335   -0.3556 H       1  UNL1        0.0252
     29 H           2.8389    1.0099    0.1869 H       1  UNL1        0.0557
     30 H           2.8389   -0.2127   -1.0614 H       1  UNL1        0.0557
     31 H           4.7322    0.0534    1.1236 H       1  UNL1        0.0583
     32 H           4.7322   -1.1692   -0.1247 H       1  UNL1        0.0583
     33 H           4.5255   -2.9138    1.5838 H       1  UNL1        0.0583
     34 H           4.5255   -1.6913    2.8322 H       1  UNL1        0.0583
     35 H           6.4189   -3.8703    2.5206 H       1  UNL1        0.0583
     36 H           6.4189   -2.6478    3.7689 H       1  UNL1        0.0583
     37 H           8.6522   -1.9270    3.0631 H       1  UNL1        0.0583
     38 H           8.6522   -3.1496    1.8147 H       1  UNL1        0.0583
     39 H          10.5455   -2.8835    3.9998 H       1  UNL1        0.0583
     40 H          10.5455   -4.1061    2.7514 H       1  UNL1        0.0583
     41 H          10.3389   -5.8507    4.4600 H       1  UNL1        0.0583
     42 H          10.3389   -4.6281    5.7084 H       1  UNL1        0.0583
     43 H          12.2322   -6.8072    5.3967 H       1  UNL1        0.0578
     44 H          12.2322   -5.5846    6.6451 H       1  UNL1        0.0578
     45 H          14.4655   -4.8639    5.9392 H       1  UNL1        0.0532
     46 H          14.4655   -6.0864    4.6909 H       1  UNL1        0.0532
     47 H          16.6389   -6.4471    6.2669 H       1  UNL1        0.0845
     48 H          15.6122   -8.6197    9.6174 H       1  UNL1        0.0329
     49 H          15.6122   -9.8422    8.3690 H       1  UNL1        0.0329
     50 H          13.8904   -8.5963    7.1489 H       1  UNL1        0.0273
     51 H          13.8904   -7.3737    8.3972 H       1  UNL1        0.0273
     52 H          13.2059   -9.0549   10.0436 H       1  UNL1        0.0358
     53 H          13.2059  -10.2774    8.7953 H       1  UNL1        0.0358
     54 H          12.1731   -7.3685    7.1693 H       1  UNL1        0.1449
     55 H          10.4886   -7.5579    7.3547 H       1  UNL1        0.1449
@<TRIPOS>BOND
     1     1     2    1
     2     2     3    1
     3     3     4    1
     4     4     5    1
     5     5     6    1
     6     6     7    1
     7     7     8    1
     8     8     9    1
     9     9    10    1
    10    10    11    1
    11    11    12    1
    12    12    13    1
    13    13    14    1
    14    14    15    1
    15    15    16   ar
    16    16    17   ar
    17    17    18    1
    18    18    19    1
    19    19    20    1
    20    20    21    1
    21    21    22   am
    22    21    23    2
    23    17    24   ar
    24    24    25   ar
    25    15    25   ar
    26     1    26    1
    27     1    27    1
    28     1    28    1
    29     2    29    1
    30     2    30    1
    31     4    31    1
    32     4    32    1
    33     5    33    1
    34     5    34    1
    35     7    35    1
    36     7    36    1
    37     8    37    1
    38     8    38    1
    39    10    39    1
    40    10    40    1
    41    11    41    1
    42    11    42    1
    43    13    43    1
    44    13    44    1
    45    14    45    1
    46    14    46    1
    47    16    47    1
    48    18    48    1
    49    18    49    1
    50    19    50    1
    51    19    51    1
    52    20    52    1
    53    20    53    1
    54    22    54    1
    55    22    55    1
