@<TRIPOS>MOLECULE
*****
 22 21 0 0 0
SMALL
GASTEIGER

@<TRIPOS>ATOM
      1 C           0.9222   -0.0268   -0.0568 C.3     1  UNL1        0.0364
      2 O           2.3422   -0.0268   -0.0568 O.3     1  UNL1       -0.3830
      3 C           2.8155   -1.1784   -0.7396 C.3     1  UNL1        0.0473
      4 C           4.3355   -1.1784   -0.7396 C.3     1  UNL1       -0.0294
      5 C           4.8422   -2.4111   -1.4705 C.3     1  UNL1       -0.0489
      6 C           6.3622   -2.4111   -1.4705 C.3     1  UNL1       -0.0296
      7 C           6.8688   -3.6438   -2.2014 C.3     1  UNL1        0.0442
      8 O           8.2888   -3.6438   -2.2014 O.3     1  UNL1       -0.3950
      9 H           0.5655    0.8409    0.4577 H       1  UNL1        0.0523
     10 H           0.5655   -0.9063    0.4374 H       1  UNL1        0.0523
     11 H           0.5655   -0.0151   -1.0655 H       1  UNL1        0.0523
     12 H           2.4588   -1.1667   -1.7483 H       1  UNL1        0.0560
     13 H           2.4588   -2.0579   -0.2454 H       1  UNL1        0.0560
     14 H           4.6922   -1.1901    0.2691 H       1  UNL1        0.0287
     15 H           4.6922   -0.2990   -1.2338 H       1  UNL1        0.0287
     16 H           4.4855   -2.3994   -2.4792 H       1  UNL1        0.0267
     17 H           4.4855   -3.2905   -0.9762 H       1  UNL1        0.0267
     18 H           6.7188   -2.4228   -0.4617 H       1  UNL1        0.0287
     19 H           6.7188   -1.5317   -1.9647 H       1  UNL1        0.0287
     20 H           6.5122   -3.6321   -3.2101 H       1  UNL1        0.0557
     21 H           6.5122   -4.5232   -1.7071 H       1  UNL1        0.0557
     22 H           8.6122   -2.8465   -2.6494 H       1  UNL1        0.2094
@<TRIPOS>BOND
     1     1     2    1
     2     2     3    1
     3     3     4    1
     4     4     5    1
     5     5     6    1
     6     6     7    1
     7     7     8    1
     8     1     9    1
     9     1    10    1
    10     1    11    1
    11     3    12    1
    12     3    13    1
    13     4    14    1
    14     4    15    1
    15     5    16    1
    16     5    17    1
    17     6    18    1
    18     6    19    1
    19     7    20    1
    20     7    21    1
    21     8    22    1
