@<TRIPOS>MOLECULE
*****
 30 29 0 0 0
SMALL
GASTEIGER

@<TRIPOS>ATOM
      1 N           0.9798   -0.0700    0.0685 N.3     1  UNL1       -0.3300
      2 C           2.4498   -0.0700    0.0685 C.3     1  UNL1       -0.0069
      3 C           2.9565   -1.0421    1.1215 C.3     1  UNL1       -0.0406
      4 C           4.4765   -1.0421    1.1215 C.3     1  UNL1       -0.0519
      5 C           4.9832   -2.0141    2.1745 C.3     1  UNL1       -0.0516
      6 C           6.5032   -2.0141    2.1745 C.3     1  UNL1       -0.0374
      7 C           7.0098   -2.9862    3.2274 C.3     1  UNL1        0.0117
      8 N           8.4798   -2.9862    3.2274 N.am    1  UNL1       -0.3134
      9 C           9.2148   -3.8498    4.1628 C.2     1  UNL1        0.2385
     10 O           8.5794   -4.5964    4.9715 O.2     1  UNL1       -0.2733
     11 C          10.7348   -3.8498    4.1628 C.3     1  UNL1        0.1202
     12 O          11.2081   -4.7579    5.1465 O.3     1  UNL1       -0.3858
     13 H           0.6398    0.5824   -0.6381 H       1  UNL1        0.1182
     14 H           0.6398    0.2158    0.9868 H       1  UNL1        0.1182
     15 H           2.8065    0.9141    0.2905 H       1  UNL1        0.0422
     16 H           2.8065   -0.3697   -0.8947 H       1  UNL1        0.0422
     17 H           2.5998   -2.0261    0.8995 H       1  UNL1        0.0277
     18 H           2.5998   -0.7423    2.0847 H       1  UNL1        0.0277
     19 H           4.8332   -0.0580    1.3435 H       1  UNL1        0.0266
     20 H           4.8332   -1.3418    0.1583 H       1  UNL1        0.0266
     21 H           4.6265   -2.9982    1.9525 H       1  UNL1        0.0266
     22 H           4.6265   -1.7144    3.1377 H       1  UNL1        0.0266
     23 H           6.8598   -1.0301    2.3965 H       1  UNL1        0.0280
     24 H           6.8598   -2.3139    1.2112 H       1  UNL1        0.0280
     25 H           6.6532   -3.9703    3.0054 H       1  UNL1        0.0462
     26 H           6.6532   -2.6865    4.1907 H       1  UNL1        0.0462
     27 H           8.9721   -2.4079    2.6010 H       1  UNL1        0.1487
     28 H          11.0915   -2.8657    4.3848 H       1  UNL1        0.0654
     29 H          11.0915   -4.1496    3.1996 H       1  UNL1        0.0654
     30 H          10.8848   -4.4862    6.0197 H       1  UNL1        0.2100
@<TRIPOS>BOND
     1     1     2    1
     2     2     3    1
     3     3     4    1
     4     4     5    1
     5     5     6    1
     6     6     7    1
     7     7     8    1
     8     8     9   am
     9     9    10    2
    10     9    11    1
    11    11    12    1
    12     1    13    1
    13     1    14    1
    14     2    15    1
    15     2    16    1
    16     3    17    1
    17     3    18    1
    18     4    19    1
    19     4    20    1
    20     5    21    1
    21     5    22    1
    22     6    23    1
    23     6    24    1
    24     7    25    1
    25     7    26    1
    26     8    27    1
    27    11    28    1
    28    11    29    1
    29    12    30    1
