@<TRIPOS>MOLECULE
*****
 20 19 0 0 0
SMALL
GASTEIGER

@<TRIPOS>ATOM
      1 C           0.9286   -0.0073    0.0697 C.3     1  UNL1       -0.0653
      2 C           2.4486   -0.0073    0.0697 C.3     1  UNL1       -0.0559
      3 C           2.9553    0.6498   -1.2039 C.3     1  UNL1       -0.0533
      4 C           4.4753    0.6498   -1.2039 C.3     1  UNL1       -0.0533
      5 C           4.9820    1.3069   -2.4774 C.3     1  UNL1       -0.0559
      6 C           6.5020    1.3069   -2.4774 C.3     1  UNL1       -0.0653
      7 H           0.5720   -0.4698    0.9662 H       1  UNL1        0.0230
      8 H           0.5720   -0.5524   -0.7792 H       1  UNL1        0.0230
      9 H           0.5720    1.0004    0.0220 H       1  UNL1        0.0230
     10 H           2.8053   -1.0149    0.1174 H       1  UNL1        0.0263
     11 H           2.8053    0.5379    0.9185 H       1  UNL1        0.0263
     12 H           2.5986    1.6575   -1.2516 H       1  UNL1        0.0265
     13 H           2.5986    0.1047   -2.0527 H       1  UNL1        0.0265
     14 H           4.8320   -0.3579   -1.1562 H       1  UNL1        0.0265
     15 H           4.8320    1.1949   -0.3550 H       1  UNL1        0.0265
     16 H           4.6253    2.3146   -2.5251 H       1  UNL1        0.0263
     17 H           4.6253    0.7617   -3.3263 H       1  UNL1        0.0263
     18 H           6.8586    1.8520   -1.6286 H       1  UNL1        0.0230
     19 H           6.8586    1.7694   -3.3740 H       1  UNL1        0.0230
     20 H           6.8586    0.2992   -2.4298 H       1  UNL1        0.0230
@<TRIPOS>BOND
     1     1     2    1
     2     2     3    1
     3     3     4    1
     4     4     5    1
     5     5     6    1
     6     1     7    1
     7     1     8    1
     8     1     9    1
     9     2    10    1
    10     2    11    1
    11     3    12    1
    12     3    13    1
    13     4    14    1
    14     4    15    1
    15     5    16    1
    16     5    17    1
    17     6    18    1
    18     6    19    1
    19     6    20    1
