@<TRIPOS>MOLECULE
*****
 36 35 0 0 0
SMALL
GASTEIGER

@<TRIPOS>ATOM
      1 C           0.9317   -0.0514   -0.0519 C.3     1  UNL1       -0.0653
      2 C           2.4517   -0.0514   -0.0519 C.3     1  UNL1       -0.0559
      3 C           2.9584   -1.0223    1.0021 C.3     1  UNL1       -0.0533
      4 C           4.4784   -1.0223    1.0021 C.3     1  UNL1       -0.0531
      5 C           4.9850   -1.9932    2.0562 C.3     1  UNL1       -0.0530
      6 C           6.5050   -1.9932    2.0562 C.3     1  UNL1       -0.0516
      7 C           7.0117   -2.9641    3.1102 C.3     1  UNL1       -0.0374
      8 C           8.5317   -2.9641    3.1102 C.3     1  UNL1        0.0116
      9 N           9.0217   -3.9031    4.1296 N.am    1  UNL1       -0.3153
     10 C          10.4669   -4.0851    4.3272 C.2     1  UNL1        0.2128
     11 O          11.2928   -3.4306    3.6167 O.2     1  UNL1       -0.2758
     12 C          10.9736   -5.0560    5.3812 C.3     1  UNL1        0.0211
     13 C          12.4936   -5.0560    5.3812 C.3     1  UNL1       -0.0570
     14 H           0.5750    0.6321   -0.7939 H       1  UNL1        0.0230
     15 H           0.5750    0.2495    0.9110 H       1  UNL1        0.0230
     16 H           0.5750   -1.0357   -0.2728 H       1  UNL1        0.0230
     17 H           2.8084    0.9329    0.1690 H       1  UNL1        0.0263
     18 H           2.8084   -0.3522   -1.0148 H       1  UNL1        0.0263
     19 H           2.6017   -2.0066    0.7812 H       1  UNL1        0.0265
     20 H           2.6017   -0.7214    1.9650 H       1  UNL1        0.0265
     21 H           4.8350   -0.0380    1.2230 H       1  UNL1        0.0265
     22 H           4.8350   -1.3231    0.0392 H       1  UNL1        0.0265
     23 H           4.6284   -2.9775    1.8353 H       1  UNL1        0.0265
     24 H           4.6284   -1.6924    3.0191 H       1  UNL1        0.0265
     25 H           6.8617   -1.0089    2.2771 H       1  UNL1        0.0266
     26 H           6.8617   -2.2941    1.0933 H       1  UNL1        0.0266
     27 H           6.6550   -3.9484    2.8893 H       1  UNL1        0.0280
     28 H           6.6550   -2.6633    4.0731 H       1  UNL1        0.0280
     29 H           8.8883   -1.9798    3.3312 H       1  UNL1        0.0462
     30 H           8.8883   -3.2650    2.1473 H       1  UNL1        0.0462
     31 H           8.3819   -4.4101    4.6800 H       1  UNL1        0.1487
     32 H          10.6169   -6.0403    5.1603 H       1  UNL1        0.0356
     33 H          10.6169   -4.7551    6.3441 H       1  UNL1        0.0356
     34 H          12.8502   -5.3568    4.4183 H       1  UNL1        0.0234
     35 H          12.8503   -5.7395    6.1232 H       1  UNL1        0.0234
     36 H          12.8503   -4.0717    5.6022 H       1  UNL1        0.0234
@<TRIPOS>BOND
     1     1     2    1
     2     2     3    1
     3     3     4    1
     4     4     5    1
     5     5     6    1
     6     6     7    1
     7     7     8    1
     8     8     9    1
     9     9    10   am
    10    10    11    2
    11    10    12    1
    12    12    13    1
    13     1    14    1
    14     1    15    1
    15     1    16    1
    16     2    17    1
    17     2    18    1
    18     3    19    1
    19     3    20    1
    20     4    21    1
    21     4    22    1
    22     5    23    1
    23     5    24    1
    24     6    25    1
    25     6    26    1
    26     7    27    1
    27     7    28    1
    28     8    29    1
    29     8    30    1
    30     9    31    1
    31    12    32    1
    32    12    33    1
    33    13    34    1
    34    13    35    1
    35    13    36    1
