@<TRIPOS>MOLECULE
*****
 47 47 0 0 0
SMALL
GASTEIGER

@<TRIPOS>ATOM
      1 N           0.9569    0.0547    0.0718 N.3     1  UNL1       -0.3300
      2 C           2.4269    0.0547    0.0718 C.3     1  UNL1       -0.0069
      3 C           2.9335   -1.3295    0.4432 C.3     1  UNL1       -0.0406
      4 C           4.4535   -1.3295    0.4432 C.3     1  UNL1       -0.0519
      5 C           4.9602   -2.7136    0.8146 C.3     1  UNL1       -0.0530
      6 C           6.4802   -2.7136    0.8146 C.3     1  UNL1       -0.0514
      7 C           6.9868   -4.0977    1.1860 C.3     1  UNL1       -0.0333
      8 C           8.5068   -4.0977    1.1860 C.3     1  UNL1        0.0432
      9 N           8.9968   -5.4363    1.5451 N.ar    1  UNL1       -0.2515
     10 C          10.3662   -5.6821    1.6111 C.ar    1  UNL1        0.0486
     11 C          10.8463   -6.9935    1.9630 C.ar    1  UNL1        0.0828
     12 C           9.8585   -8.1094    2.2624 C.3     1  UNL1       -0.0071
     13 C           8.4400   -7.5819    2.1209 C.3     1  UNL1       -0.0475
     14 C           7.4523   -8.6977    2.4203 C.3     1  UNL1       -0.0506
     15 C           6.0338   -8.1702    2.2788 C.3     1  UNL1       -0.0297
     16 C           5.0460   -9.2861    2.5782 C.3     1  UNL1        0.0442
     17 O           3.7209   -8.7933    2.4459 O.3     1  UNL1       -0.3950
     18 N          12.2156   -7.2393    2.0290 N.ar    1  UNL1       -0.1345
     19 N           8.1225   -6.4240    1.8102 N.ar    1  UNL1       -0.0655
     20 H           0.6169    0.9835   -0.1775 H       1  UNL1        0.1182
     21 H           0.6169   -0.1939    1.0008 H       1  UNL1        0.1182
     22 H           2.7835    0.7682    0.7849 H       1  UNL1        0.0422
     23 H           2.7835    0.3154   -0.9028 H       1  UNL1        0.0422
     24 H           2.5768   -2.0430   -0.2699 H       1  UNL1        0.0277
     25 H           2.5768   -1.5902    1.4177 H       1  UNL1        0.0277
     26 H           4.8102   -0.6159    1.1563 H       1  UNL1        0.0266
     27 H           4.8102   -1.0687   -0.5314 H       1  UNL1        0.0266
     28 H           4.6035   -3.4272    0.1015 H       1  UNL1        0.0265
     29 H           4.6035   -2.9743    1.7891 H       1  UNL1        0.0265
     30 H           6.8368   -2.0000    1.5276 H       1  UNL1        0.0266
     31 H           6.8368   -2.4528   -0.1600 H       1  UNL1        0.0266
     32 H           6.6302   -4.8113    0.4729 H       1  UNL1        0.0283
     33 H           6.6302   -4.3584    2.1605 H       1  UNL1        0.0283
     34 H           8.8635   -3.3841    1.8990 H       1  UNL1        0.0509
     35 H           8.8635   -3.8369    0.2114 H       1  UNL1        0.0509
     36 H          11.0368   -4.9245    1.4078 H       1  UNL1        0.0845
     37 H          10.0101   -8.4614    3.2614 H       1  UNL1        0.0329
     38 H          10.0101   -8.9142    1.5738 H       1  UNL1        0.0329
     39 H           8.2884   -7.2299    1.1219 H       1  UNL1        0.0269
     40 H           8.2884   -6.7770    2.8095 H       1  UNL1        0.0269
     41 H           7.6039   -9.0497    3.4193 H       1  UNL1        0.0266
     42 H           7.6039   -9.5025    1.7317 H       1  UNL1        0.0266
     43 H           5.8822   -7.8182    1.2797 H       1  UNL1        0.0287
     44 H           5.8822   -7.3654    2.9673 H       1  UNL1        0.0287
     45 H           5.1977   -9.6381    3.5772 H       1  UNL1        0.0557
     46 H           5.1977  -10.0909    1.8896 H       1  UNL1        0.0557
     47 H           3.5834   -8.0637    3.0702 H       1  UNL1        0.2094
@<TRIPOS>BOND
     1     1     2    1
     2     2     3    1
     3     3     4    1
     4     4     5    1
     5     5     6    1
     6     6     7    1
     7     7     8    1
     8     8     9    1
     9     9    10   ar
    10    10    11   ar
    11    11    12    1
    12    12    13    1
    13    13    14    1
    14    14    15    1
    15    15    16    1
    16    16    17    1
    17    11    18   ar
    18    18    19   ar
    19     9    19   ar
    20     1    20    1
    21     1    21    1
    22     2    22    1
    23     2    23    1
    24     3    24    1
    25     3    25    1
    26     4    26    1
    27     4    27    1
    28     5    28    1
    29     5    29    1
    30     6    30    1
    31     6    31    1
    32     7    32    1
    33     7    33    1
    34     8    34    1
    35     8    35    1
    36    10    36    1
    37    12    37    1
    38    12    38    1
    39    13    39    1
    40    13    40    1
    41    14    41    1
    42    14    42    1
    43    15    43    1
    44    15    44    1
    45    16    45    1
    46    16    46    1
    47    17    47    1
