@<TRIPOS>MOLECULE
*****
 45 46 0 0 0
SMALL
GASTEIGER

@<TRIPOS>ATOM
      1 C           1.0244    0.0826    0.0508 C.3     1  UNL1       -0.0653
      2 C           2.5444    0.0826    0.0508 C.3     1  UNL1       -0.0559
      3 C           3.0511    1.4571   -0.3549 C.3     1  UNL1       -0.0532
      4 C           4.5711    1.4571   -0.3549 C.3     1  UNL1       -0.0500
      5 C           5.0777    2.8316   -0.7605 C.3     1  UNL1       -0.0186
      6 C           6.5977    2.8316   -0.7605 C.3     1  UNL1        0.0896
      7 O           7.0711    4.1156   -1.1394 O.3     1  UNL1       -0.4920
      8 C           8.4672    4.3645   -1.2129 C.ar    1  UNL1        0.1206
      9 C           8.9472    5.6668   -1.5972 C.ar    1  UNL1       -0.0179
     10 C          10.3632    5.9192   -1.6717 C.ar    1  UNL1       -0.0311
     11 C          10.8432    7.2215   -2.0560 C.ar    1  UNL1        0.0864
     12 N           9.8880    8.2931   -2.3722 N.2     1  UNL1       -0.1493
     13 N           8.6385    8.0704   -2.3065 N.2     1  UNL1       -0.1493
     14 C           7.6832    9.1420   -2.6228 C.ar    1  UNL1        0.0862
     15 C           6.2673    8.8896   -2.5483 C.ar    1  UNL1       -0.0339
     16 C           5.3314    9.9395   -2.8581 C.ar    1  UNL1       -0.0495
     17 C           3.9154    9.6871   -2.7836 C.ar    1  UNL1        0.0143
     18 C           3.4088    8.3126   -2.3780 C.2     1  UNL1        0.1502
     19 O           4.2347    7.3862   -2.1046 O.2     1  UNL1       -0.2957
     20 C           2.9795   10.7370   -3.0934 C.ar    1  UNL1       -0.0495
     21 C           8.1633   10.4443   -3.0071 C.ar    1  UNL1       -0.0339
     22 C          12.2592    7.4739   -2.1305 C.ar    1  UNL1       -0.0311
     23 C           9.4031    3.3146   -0.9030 C.ar    1  UNL1       -0.0179
     24 H           0.6678   -0.8849    0.3363 H       1  UNL1        0.0230
     25 H           0.6678    0.3191   -0.9299 H       1  UNL1        0.0230
     26 H           0.6678    0.8137    0.7459 H       1  UNL1        0.0230
     27 H           2.9011   -0.6484   -0.6444 H       1  UNL1        0.0263
     28 H           2.9011   -0.1539    1.0314 H       1  UNL1        0.0263
     29 H           2.6944    2.1882    0.3403 H       1  UNL1        0.0265
     30 H           2.6944    1.6936   -1.3356 H       1  UNL1        0.0265
     31 H           4.9278    0.7260   -1.0500 H       1  UNL1        0.0266
     32 H           4.9278    1.2206    0.6258 H       1  UNL1        0.0266
     33 H           4.7211    3.5626   -0.0653 H       1  UNL1        0.0298
     34 H           4.7211    3.0681   -1.7412 H       1  UNL1        0.0298
     35 H           6.9544    2.1005   -1.4556 H       1  UNL1        0.0696
     36 H           6.9544    2.5951    0.2202 H       1  UNL1        0.0696
     37 H           8.2766    6.4191   -1.8192 H       1  UNL1        0.0655
     38 H          11.0338    5.1669   -1.4497 H       1  UNL1        0.0640
     39 H           5.9233    7.9564   -2.2729 H       1  UNL1        0.0639
     40 H           5.6754   10.8727   -3.1335 H       1  UNL1        0.0625
     41 H           2.3942    8.1318   -2.3246 H       1  UNL1        0.1081
     42 H           2.0553   11.1774   -3.2234 H       1  UNL1        0.0625
     43 H           9.0231   10.9918   -3.1686 H       1  UNL1        0.0639
     44 H          13.1190    8.0214   -2.2920 H       1  UNL1        0.0640
     45 H           9.4675    2.3267   -0.6115 H       1  UNL1        0.0655
@<TRIPOS>BOND
     1     1     2    1
     2     2     3    1
     3     3     4    1
     4     4     5    1
     5     5     6    1
     6     6     7    1
     7     7     8    1
     8     8     9   ar
     9     9    10   ar
    10    10    11   ar
    11    11    12    1
    12    12    13    2
    13    13    14    1
    14    14    15   ar
    15    15    16   ar
    16    16    17   ar
    17    17    18    1
    18    18    19    2
    19    17    20   ar
    20    20    21   ar
    21    14    21   ar
    22    11    22   ar
    23    22    23   ar
    24     8    23   ar
    25     1    24    1
    26     1    25    1
    27     1    26    1
    28     2    27    1
    29     2    28    1
    30     3    29    1
    31     3    30    1
    32     4    31    1
    33     4    32    1
    34     5    33    1
    35     5    34    1
    36     6    35    1
    37     6    36    1
    38     9    37    1
    39    10    38    1
    40    15    39    1
    41    16    40    1
    42    18    41    1
    43    20    42    1
    44    21    43    1
    45    22    44    1
    46    23    45    1
