@<TRIPOS>MOLECULE
*****
 24 23 0 0 0
SMALL
GASTEIGER

@<TRIPOS>ATOM
      1 C           1.0430   -0.0824    0.0368 C.3     1  UNL1       -0.0653
      2 C           2.5630   -0.0824    0.0368 C.3     1  UNL1       -0.0559
      3 C           3.0697    0.6228    1.2844 C.3     1  UNL1       -0.0529
      4 C           4.5897    0.6228    1.2844 C.3     1  UNL1       -0.0448
      5 C           5.0963    1.3280    2.5319 C.3     1  UNL1        0.0239
      6 C           6.6163    1.3280    2.5319 C.2     1  UNL1        0.2128
      7 O           7.2518    0.7864    1.5738 O.2     1  UNL1       -0.2758
      8 N           7.3513    1.9545    3.6402 N.am    1  UNL1       -0.3184
      9 C           8.8213    1.9545    3.6402 C.3     1  UNL1        0.0001
     10 H           0.6863   -0.5789   -0.8414 H       1  UNL1        0.0230
     11 H           0.6863    0.9263    0.0460 H       1  UNL1        0.0230
     12 H           0.6863   -0.5948    0.9058 H       1  UNL1        0.0230
     13 H           2.9197    0.4299   -0.8322 H       1  UNL1        0.0263
     14 H           2.9197   -1.0912    0.0276 H       1  UNL1        0.0263
     15 H           2.7130    0.1105    2.1534 H       1  UNL1        0.0265
     16 H           2.7130    1.6316    1.2935 H       1  UNL1        0.0265
     17 H           4.9463    1.1351    0.4153 H       1  UNL1        0.0270
     18 H           4.9463   -0.3860    1.2752 H       1  UNL1        0.0270
     19 H           4.7397    0.8157    3.4009 H       1  UNL1        0.0358
     20 H           4.7397    2.3368    2.5411 H       1  UNL1        0.0358
     21 H           6.8591    2.3740    4.3824 H       1  UNL1        0.1484
     22 H           9.1780    1.4580    2.7619 H       1  UNL1        0.0426
     23 H           9.1780    1.4422    4.5092 H       1  UNL1        0.0426
     24 H           9.1780    2.9632    3.6493 H       1  UNL1        0.0426
@<TRIPOS>BOND
     1     1     2    1
     2     2     3    1
     3     3     4    1
     4     4     5    1
     5     5     6    1
     6     6     7    2
     7     6     8   am
     8     8     9    1
     9     1    10    1
    10     1    11    1
    11     1    12    1
    12     2    13    1
    13     2    14    1
    14     3    15    1
    15     3    16    1
    16     4    17    1
    17     4    18    1
    18     5    19    1
    19     5    20    1
    20     8    21    1
    21     9    22    1
    22     9    23    1
    23     9    24    1
