@<TRIPOS>MOLECULE
*****
 37 38 0 0 0
SMALL
GASTEIGER

@<TRIPOS>ATOM
      1 C           0.9525    0.0271    0.0837 C.3     1  UNL1       -0.0127
      2 N           2.4225    0.0271    0.0837 N.3     1  UNL1       -0.3029
      3 C           2.9125    0.5288   -1.2082 C.3     1  UNL1        0.0114
      4 C           4.4325    0.5288   -1.2082 C.3     1  UNL1        0.0117
      5 N           4.9225    1.0305   -2.5002 N.3     1  UNL1       -0.2996
      6 C           4.4325    2.4002   -2.7117 C.3     1  UNL1        0.0019
      7 C           2.9125    2.4002   -2.7117 C.3     1  UNL1       -0.0260
      8 C           2.4058    3.8165   -2.9303 C.3     1  UNL1       -0.0364
      9 C           0.8858    3.8165   -2.9303 C.3     1  UNL1       -0.0038
     10 N           0.3958    5.1862   -3.1418 N.3     1  UNL1       -0.3160
     11 C          -1.0742    5.1862   -3.1418 C.3     1  UNL1       -0.0038
     12 C           2.4058    1.8815   -1.3758 C.3     1  UNL1       -0.0364
     13 C           6.3925    1.0305   -2.5002 C.3     1  UNL1        0.0117
     14 C           2.9125   -1.3426    0.2952 C.3     1  UNL1        0.0114
     15 H           0.5958    1.0241   -0.0702 H       1  UNL1        0.0391
     16 H           0.5958   -0.3380    1.0241 H       1  UNL1        0.0391
     17 H           0.5958   -0.6047   -0.7027 H       1  UNL1        0.0391
     18 H           2.5558    1.5258   -1.3622 H       1  UNL1        0.0439
     19 H           2.5558   -0.1030   -1.9947 H       1  UNL1        0.0439
     20 H           4.7892   -0.4682   -1.0543 H       1  UNL1        0.0439
     21 H           4.7892    1.1606   -0.4218 H       1  UNL1        0.0439
     22 H           4.7892    2.7654   -3.6520 H       1  UNL1        0.0429
     23 H           4.7892    3.0320   -1.9252 H       1  UNL1        0.0429
     24 H           2.5558    1.7684   -3.4981 H       1  UNL1        0.0314
     25 H           2.7625    4.1817   -3.8707 H       1  UNL1        0.0281
     26 H           2.7625    4.4483   -2.1439 H       1  UNL1        0.0281
     27 H           0.5292    3.4513   -1.9899 H       1  UNL1        0.0424
     28 H           0.5292    3.1847   -3.7168 H       1  UNL1        0.0424
     29 H           0.7358    5.5343   -4.0383 H       1  UNL1        0.1219
     30 H          -1.6405    4.9922   -4.0287 H       1  UNL1        0.0424
     31 H          -1.8965    5.7773   -2.7964 H       1  UNL1        0.0424
     32 H           2.1271    0.8501   -1.3159 H       1  UNL1        0.0281
     33 H           2.8995    1.8622   -0.4267 H       1  UNL1        0.0281
     34 H           6.9601    1.8544   -2.1207 H       1  UNL1        0.0439
     35 H           7.2176    0.8164   -3.1469 H       1  UNL1        0.0439
     36 H           3.1842   -1.6235    1.2913 H       1  UNL1        0.0439
     37 H           2.4160   -2.2710    0.1043 H       1  UNL1        0.0439
@<TRIPOS>BOND
     1     1     2    1
     2     2     3    1
     3     3     4    1
     4     4     5    1
     5     5     6    1
     6     6     7    1
     7     7     8    1
     8     8     9    1
     9     9    10    1
    10    10    11    1
    11    11    12    1
    12     7    12    1
    13     5    13    1
    14    13    14    1
    15     2    14    1
    16     1    15    1
    17     1    16    1
    18     1    17    1
    19     3    18    1
    20     3    19    1
    21     4    20    1
    22     4    21    1
    23     6    22    1
    24     6    23    1
    25     7    24    1
    26     8    25    1
    27     8    26    1
    28     9    27    1
    29     9    28    1
    30    10    29    1
    31    11    30    1
    32    11    31    1
    33    12    32    1
    34    12    33    1
    35    13    34    1
    36    13    35    1
    37    14    36    1
    38    14    37    1
