@<TRIPOS>MOLECULE
*****
 50 50 0 0 0
SMALL
GASTEIGER

@<TRIPOS>ATOM
      1 C           0.9222    0.0623    0.0080 C.3     1  UNL1       -0.0653
      2 C           2.4422    0.0623    0.0080 C.3     1  UNL1       -0.0559
      3 C           2.9488   -1.0255   -0.9249 C.3     1  UNL1       -0.0533
      4 C           4.4688   -1.0255   -0.9249 C.3     1  UNL1       -0.0531
      5 C           4.9755   -2.1133   -1.8579 C.3     1  UNL1       -0.0530
      6 C           6.4955   -2.1133   -1.8579 C.3     1  UNL1       -0.0519
      7 C           7.0022   -3.2010   -2.7909 C.3     1  UNL1       -0.0402
      8 C           8.5222   -3.2010   -2.7909 C.3     1  UNL1       -0.0010
      9 N           9.0122   -4.2530   -3.6932 N.3     1  UNL1       -0.2994
     10 C          10.4822   -4.2530   -3.6932 C.3     1  UNL1        0.0148
     11 C          10.9888   -5.3408   -4.6261 C.3     1  UNL1        0.0275
     12 N          12.4588   -5.3408   -4.6261 N.am    1  UNL1       -0.2990
     13 C          13.1938   -4.3745   -3.7973 C.2     1  UNL1        0.2160
     14 O          14.4647   -4.3745   -3.7973 O.2     1  UNL1       -0.2756
     15 C          12.4338   -3.3753   -2.9404 C.3     1  UNL1        0.0305
     16 C          13.4216   -2.4984   -2.1882 C.3     1  UNL1        0.0110
     17 C          12.6616   -1.4992   -1.3312 C.2     1  UNL1        0.1208
     18 O          13.2970   -0.6637   -0.6147 O.2     1  UNL1       -0.3010
     19 C          13.1938   -6.3071   -5.4549 C.3     1  UNL1        0.0275
     20 C           8.5222   -3.9976   -5.0554 C.3     1  UNL1        0.0148
     21 H           0.5655    0.8280    0.6648 H       1  UNL1        0.0230
     22 H           0.5655   -0.8893    0.3428 H       1  UNL1        0.0230
     23 H           0.5655    0.2482   -0.9835 H       1  UNL1        0.0230
     24 H           2.7989   -0.1236    0.9996 H       1  UNL1        0.0263
     25 H           2.7989    1.0139   -0.3267 H       1  UNL1        0.0263
     26 H           2.5922   -0.8396   -1.9165 H       1  UNL1        0.0265
     27 H           2.5922   -1.9771   -0.5902 H       1  UNL1        0.0265
     28 H           4.8255   -1.2114    0.0666 H       1  UNL1        0.0265
     29 H           4.8255   -0.0738   -1.2597 H       1  UNL1        0.0265
     30 H           4.6188   -1.9274   -2.8494 H       1  UNL1        0.0265
     31 H           4.6188   -3.0649   -1.5231 H       1  UNL1        0.0265
     32 H           6.8522   -2.2992   -0.8664 H       1  UNL1        0.0266
     33 H           6.8522   -1.1616   -2.1927 H       1  UNL1        0.0266
     34 H           6.6455   -3.0151   -3.7824 H       1  UNL1        0.0278
     35 H           6.6455   -4.1527   -2.4561 H       1  UNL1        0.0278
     36 H           8.8788   -3.3869   -1.7994 H       1  UNL1        0.0426
     37 H           8.8788   -2.2494   -3.1256 H       1  UNL1        0.0426
     38 H          10.8388   -4.4389   -2.7016 H       1  UNL1        0.0442
     39 H          10.8388   -3.3014   -4.0279 H       1  UNL1        0.0442
     40 H          10.6322   -5.1549   -5.6177 H       1  UNL1        0.0477
     41 H          10.6322   -6.2924   -4.2914 H       1  UNL1        0.0477
     42 H          11.8187   -3.9011   -2.2403 H       1  UNL1        0.0362
     43 H          11.8187   -2.7635   -3.5666 H       1  UNL1        0.0362
     44 H          14.0367   -1.9726   -2.8883 H       1  UNL1        0.0343
     45 H          14.0367   -3.1102   -1.5620 H       1  UNL1        0.0343
     46 H          11.6296   -1.4992   -1.3312 H       1  UNL1        0.1026
     47 H          13.3722   -7.3178   -5.1522 H       1  UNL1        0.0477
     48 H          14.0446   -6.4144   -6.0950 H       1  UNL1        0.0477
     49 H           7.6650   -4.5450   -5.3879 H       1  UNL1        0.0442
     50 H           8.1768   -3.0841   -5.4925 H       1  UNL1        0.0442
@<TRIPOS>BOND
     1     1     2    1
     2     2     3    1
     3     3     4    1
     4     4     5    1
     5     5     6    1
     6     6     7    1
     7     7     8    1
     8     8     9    1
     9     9    10    1
    10    10    11    1
    11    11    12    1
    12    12    13   am
    13    13    14    2
    14    13    15    1
    15    15    16    1
    16    16    17    1
    17    17    18    2
    18    12    19    1
    19    19    20    1
    20     9    20    1
    21     1    21    1
    22     1    22    1
    23     1    23    1
    24     2    24    1
    25     2    25    1
    26     3    26    1
    27     3    27    1
    28     4    28    1
    29     4    29    1
    30     5    30    1
    31     5    31    1
    32     6    32    1
    33     6    33    1
    34     7    34    1
    35     7    35    1
    36     8    36    1
    37     8    37    1
    38    10    38    1
    39    10    39    1
    40    11    40    1
    41    11    41    1
    42    15    42    1
    43    15    43    1
    44    16    44    1
    45    16    45    1
    46    17    46    1
    47    19    47    1
    48    19    48    1
    49    20    49    1
    50    20    50    1
