@<TRIPOS>MOLECULE
*****
 37 38 0 0 0
SMALL
GASTEIGER

@<TRIPOS>ATOM
      1 O           1.0519    0.0188    0.0834 O.2     1  UNL1       -0.2793
      2 C           2.3228    0.0188    0.0834 C.2     1  UNL1        0.2025
      3 N           3.0578   -0.9689   -0.7198 N.am    1  UNL1       -0.3040
      4 C           4.5278   -0.9689   -0.7198 C.3     1  UNL1        0.0147
      5 C           5.0345   -2.0808   -1.6239 C.3     1  UNL1       -0.0331
      6 C           6.5545   -2.0808   -1.6239 C.3     1  UNL1       -0.0254
      7 C           7.0612   -2.3078   -0.2089 C.3     1  UNL1        0.0018
      8 N           6.5712   -1.2325    0.6654 N.3     1  UNL1       -0.3021
      9 C           7.0612   -1.4521    2.0338 C.3     1  UNL1       -0.0011
     10 C           6.5545   -0.3402    2.9380 C.3     1  UNL1       -0.0402
     11 C           7.0612   -0.5672    4.3529 C.3     1  UNL1       -0.0507
     12 C           6.5545    0.5446    5.2570 C.3     1  UNL1       -0.0402
     13 C           5.1012   -1.2325    0.6654 C.3     1  UNL1       -0.0011
     14 C           7.0612   -3.1927   -2.5280 C.3     1  UNL1       -0.0331
     15 C           2.3228   -1.9566   -1.5230 C.3     1  UNL1        0.0147
     16 H           2.8388    0.7123    0.6472 H       1  UNL1        0.1253
     17 H           4.8845   -1.1287    0.2763 H       1  UNL1        0.0464
     18 H           4.8845   -0.0264   -1.0794 H       1  UNL1        0.0464
     19 H           4.6778   -1.9209   -2.6200 H       1  UNL1        0.0283
     20 H           4.6778   -3.0233   -1.2643 H       1  UNL1        0.0283
     21 H           6.9112   -1.1382   -1.9835 H       1  UNL1        0.0314
     22 H           8.1312   -2.3078   -0.2089 H       1  UNL1        0.0429
     23 H           6.7045   -3.2503    0.1507 H       1  UNL1        0.0429
     24 H           8.1312   -1.4521    2.0338 H       1  UNL1        0.0426
     25 H           6.7045   -2.3946    2.3935 H       1  UNL1        0.0426
     26 H           5.4845   -0.3402    2.9380 H       1  UNL1        0.0278
     27 H           6.9112    0.6023    2.5783 H       1  UNL1        0.0278
     28 H           8.1312   -0.5672    4.3529 H       1  UNL1        0.0266
     29 H           6.7045   -1.5098    4.7125 H       1  UNL1        0.0266
     30 H           7.0794    1.4704    5.3676 H       1  UNL1        0.0278
     31 H           6.1694    0.6959    6.2438 H       1  UNL1        0.0278
     32 H           4.6064   -0.5512    0.0052 H       1  UNL1        0.0426
     33 H           4.4309   -2.0352    0.4389 H       1  UNL1        0.0426
     34 H           7.5013   -4.0801   -2.1236 H       1  UNL1        0.0283
     35 H           7.6949   -3.3015   -3.3833 H       1  UNL1        0.0283
     36 H           1.7450   -2.6773   -0.9829 H       1  UNL1        0.0464
     37 H           1.5570   -1.7467   -2.2401 H       1  UNL1        0.0464
@<TRIPOS>BOND
     1     1     2    2
     2     2     3   am
     3     3     4    1
     4     4     5    1
     5     5     6    1
     6     6     7    1
     7     7     8    1
     8     8     9    1
     9     9    10    1
    10    10    11    1
    11    11    12    1
    12    12    13    1
    13     8    13    1
    14     6    14    1
    15    14    15    1
    16     3    15    1
    17     2    16    1
    18     4    17    1
    19     4    18    1
    20     5    19    1
    21     5    20    1
    22     6    21    1
    23     7    22    1
    24     7    23    1
    25     9    24    1
    26     9    25    1
    27    10    26    1
    28    10    27    1
    29    11    28    1
    30    11    29    1
    31    12    30    1
    32    12    31    1
    33    13    32    1
    34    13    33    1
    35    14    34    1
    36    14    35    1
    37    15    36    1
    38    15    37    1
