@<TRIPOS>MOLECULE
*****
 35 35 0 0 0
SMALL
GASTEIGER

@<TRIPOS>ATOM
      1 C           1.0599    0.0655   -0.0461 C.3     1  UNL1       -0.0416
      2 C           2.5799    0.0655   -0.0461 C.3     1  UNL1        0.0449
      3 O           3.0532   -0.9355   -0.9350 O.3     1  UNL1       -0.3778
      4 C           4.4732   -0.9355   -0.9350 C.3     1  UNL1        0.0710
      5 C           4.9799   -2.0070   -1.8866 C.3     1  UNL1        0.0711
      6 O           6.3999   -2.0070   -1.8866 O.3     1  UNL1       -0.3757
      7 C           6.8732   -3.0081   -2.7756 C.3     1  UNL1        0.0673
      8 C           8.3932   -3.0081   -2.7756 C.3     1  UNL1        0.0665
      9 N           8.8832   -4.0443   -3.6959 N.ar    1  UNL1       -0.2492
     10 C          10.2526   -4.2346   -3.8649 C.ar    1  UNL1        0.0503
     11 C          10.7326   -5.2499   -4.7665 C.ar    1  UNL1        0.0998
     12 C           9.7449   -6.1138   -5.5337 C.3     1  UNL1        0.0570
     13 N           8.3730   -5.7188   -5.1830 N.am    1  UNL1       -0.3122
     14 C           7.2297   -6.4097   -5.7965 C.2     1  UNL1        0.2003
     15 O           6.0437   -6.0682   -5.4932 O.2     1  UNL1       -0.2795
     16 N          12.1020   -5.4402   -4.9355 N.ar    1  UNL1       -0.1329
     17 N           8.0089   -4.8090   -4.3750 N.ar    1  UNL1       -0.0653
     18 H           0.7032    0.8198    0.6238 H       1  UNL1        0.0252
     19 H           0.7032   -0.8917    0.2723 H       1  UNL1        0.0252
     20 H           0.7032    0.2685   -1.0342 H       1  UNL1        0.0252
     21 H           2.9365   -0.1374    0.9421 H       1  UNL1        0.0557
     22 H           2.9365    1.0228   -0.3644 H       1  UNL1        0.0557
     23 H           4.8299   -1.1385    0.0531 H       1  UNL1        0.0583
     24 H           4.8299    0.0218   -1.2533 H       1  UNL1        0.0583
     25 H           4.6232   -1.8041   -2.8748 H       1  UNL1        0.0583
     26 H           4.6232   -2.9643   -1.5683 H       1  UNL1        0.0583
     27 H           6.5165   -2.8051   -3.7638 H       1  UNL1        0.0578
     28 H           6.5165   -3.9653   -2.4573 H       1  UNL1        0.0578
     29 H           8.7499   -3.2110   -1.7874 H       1  UNL1        0.0532
     30 H           8.7499   -2.0508   -3.0939 H       1  UNL1        0.0532
     31 H          10.9232   -3.6481   -3.3440 H       1  UNL1        0.0846
     32 H           9.8965   -7.1417   -5.2781 H       1  UNL1        0.0528
     33 H           9.8965   -5.9814   -6.5846 H       1  UNL1        0.0528
     34 H           8.2200   -4.9917   -4.5372 H       1  UNL1        0.1488
     35 H           7.3901   -7.1719   -6.4734 H       1  UNL1        0.1251
@<TRIPOS>BOND
     1     1     2    1
     2     2     3    1
     3     3     4    1
     4     4     5    1
     5     5     6    1
     6     6     7    1
     7     7     8    1
     8     8     9    1
     9     9    10   ar
    10    10    11   ar
    11    11    12    1
    12    12    13    1
    13    13    14   am
    14    14    15    2
    15    11    16   ar
    16    16    17   ar
    17     9    17   ar
    18     1    18    1
    19     1    19    1
    20     1    20    1
    21     2    21    1
    22     2    22    1
    23     4    23    1
    24     4    24    1
    25     5    25    1
    26     5    26    1
    27     7    27    1
    28     7    28    1
    29     8    29    1
    30     8    30    1
    31    10    31    1
    32    12    32    1
    33    12    33    1
    34    13    34    1
    35    14    35    1
