@<TRIPOS>MOLECULE
*****
 27 28 0 0 0
SMALL
GASTEIGER

@<TRIPOS>ATOM
      1 C           1.0664   -0.0747    0.0035 C.1     1  UNL1       -0.1139
      2 C           2.3703   -0.0747    0.0035 C.1     1  UNL1       -0.0681
      3 C           3.8903   -0.0747    0.0035 C.ar    1  UNL1        0.0429
      4 C           4.6104   -1.2619   -0.3787 C.ar    1  UNL1       -0.0416
      5 C           6.0506   -1.2619   -0.3787 C.ar    1  UNL1       -0.0205
      6 C           6.7707   -2.4492   -0.7609 C.ar    1  UNL1        0.1214
      7 N           6.0357   -3.6610   -1.1510 N.pl3   1  UNL1       -0.3128
      8 C           4.5657   -3.6610   -1.1510 C.3     1  UNL1        0.0261
      9 C           4.0590   -5.0251   -1.5902 C.3     1  UNL1        0.0117
     10 N           2.5890   -5.0251   -1.5902 N.3     1  UNL1       -0.3130
     11 C           2.0990   -6.3444   -2.0149 C.3     1  UNL1        0.0117
     12 C           6.7707   -4.8728   -1.5411 C.3     1  UNL1        0.0261
     13 N           8.1635   -2.4492   -0.7609 N.ar    1  UNL1       -0.2391
     14 C           4.6104    1.1126    0.3857 C.ar    1  UNL1        0.0450
     15 H           0.0724   -0.0747    0.0035 H       1  UNL1        0.1232
     16 H           4.0944   -2.1127   -0.6526 H       1  UNL1        0.0631
     17 H           6.5666   -0.4112   -0.1048 H       1  UNL1        0.0652
     18 H           4.2090   -2.9131   -1.8281 H       1  UNL1        0.0477
     19 H           4.2090   -3.4486   -0.1648 H       1  UNL1        0.0477
     20 H           4.4157   -5.7730   -0.9131 H       1  UNL1        0.0439
     21 H           4.4157   -5.2375   -2.5764 H       1  UNL1        0.0439
     22 H           2.2490   -4.3122   -2.2356 H       1  UNL1        0.1220
     23 H           1.6578   -6.4882   -2.9790 H       1  UNL1        0.0439
     24 H           1.4641   -7.1191   -1.6386 H       1  UNL1        0.0439
     25 H           7.3480   -4.8143   -2.4401 H       1  UNL1        0.0477
     26 H           7.5369   -5.3612   -0.9760 H       1  UNL1        0.0477
     27 H           4.4889    2.0881    0.6997 H       1  UNL1        0.0843
@<TRIPOS>BOND
     1     1     2    3
     2     2     3    1
     3     3     4   ar
     4     4     5   ar
     5     5     6   ar
     6     6     7    1
     7     7     8    1
     8     8     9    1
     9     9    10    1
    10    10    11    1
    11    11    12    1
    12     7    12    1
    13     6    13   ar
    14    13    14   ar
    15     3    14   ar
    16     1    15    1
    17     4    16    1
    18     5    17    1
    19     8    18    1
    20     8    19    1
    21     9    20    1
    22     9    21    1
    23    10    22    1
    24    11    23    1
    25    11    24    1
    26    12    25    1
    27    12    26    1
    28    14    27    1
