@<TRIPOS>MOLECULE
*****
 22 22 0 0 0
SMALL
GASTEIGER

@<TRIPOS>ATOM
      1 C           0.9470   -0.0366   -0.0764 C.3     1  UNL1       -0.0623
      2 C           2.4670   -0.0366   -0.0764 C.3     1  UNL1       -0.0410
      3 C           2.9736   -1.1986    0.7624 C.3     1  UNL1       -0.0345
      4 C           4.4936   -1.1986    0.7624 C.3     1  UNL1        0.0147
      5 N           4.9836   -2.3223    1.5736 N.am    1  UNL1       -0.3040
      6 C           4.0284   -3.2282    2.2276 C.2     1  UNL1        0.2025
      7 O           2.7789   -3.0399    2.0916 O.2     1  UNL1       -0.2793
      8 C           6.4289   -2.5401    1.7308 C.3     1  UNL1        0.0147
      9 C           2.9736    1.2707    0.5104 C.3     1  UNL1       -0.0345
     10 H           0.5903   -0.9570   -0.4896 H       1  UNL1        0.0232
     11 H           0.5903    0.7813   -0.6669 H       1  UNL1        0.0232
     12 H           0.5903    0.0657    0.9272 H       1  UNL1        0.0232
     13 H           2.8236   -0.1390   -1.0800 H       1  UNL1        0.0299
     14 H           2.6170   -2.1189    0.3492 H       1  UNL1        0.0283
     15 H           2.6170   -1.0962    1.7660 H       1  UNL1        0.0283
     16 H           4.8503   -0.2782    1.1755 H       1  UNL1        0.0464
     17 H           4.8503   -1.3010   -0.2412 H       1  UNL1        0.0464
     18 H           4.3724   -4.0171    2.7971 H       1  UNL1        0.1253
     19 H           7.0248   -3.0418    0.9973 H       1  UNL1        0.0464
     20 H           7.1788   -2.8180    2.4416 H       1  UNL1        0.0464
     21 H           3.2902    2.0348   -0.1685 H       1  UNL1        0.0283
     22 H           2.4760    1.9710    1.1483 H       1  UNL1        0.0283
@<TRIPOS>BOND
     1     1     2    1
     2     2     3    1
     3     3     4    1
     4     4     5    1
     5     5     6   am
     6     6     7    2
     7     5     8    1
     8     8     9    1
     9     2     9    1
    10     1    10    1
    11     1    11    1
    12     1    12    1
    13     2    13    1
    14     3    14    1
    15     3    15    1
    16     4    16    1
    17     4    17    1
    18     6    18    1
    19     8    19    1
    20     8    20    1
    21     9    21    1
    22     9    22    1
