@<TRIPOS>MOLECULE
*****
 33 34 0 0 0
SMALL
GASTEIGER

@<TRIPOS>ATOM
      1 O           1.0050   -0.0631    0.0774 O.2     1  UNL1       -0.2793
      2 C           2.2759   -0.0631    0.0774 C.2     1  UNL1        0.2026
      3 N           3.0109    0.0654   -1.1892 N.am    1  UNL1       -0.3016
      4 C           4.4809    0.0654   -1.1892 C.3     1  UNL1        0.0272
      5 C           4.9876    0.2100   -2.6149 C.3     1  UNL1        0.0150
      6 N           6.4576    0.2100   -2.6149 N.3     1  UNL1       -0.2963
      7 C           6.9476   -1.0541   -2.0466 C.3     1  UNL1        0.0128
      8 C           6.4409   -1.1987   -0.6209 C.3     1  UNL1       -0.0247
      9 C           6.9476   -2.5057   -0.0332 C.3     1  UNL1       -0.0027
     10 N           6.4576   -2.6456    1.3456 N.3     1  UNL1       -0.3159
     11 C           6.9476   -3.9097    1.9139 C.3     1  UNL1       -0.0027
     12 C           8.4676   -1.0541   -2.0466 C.3     1  UNL1       -0.0247
     13 C           6.9476    0.3498   -3.9938 C.3     1  UNL1        0.0150
     14 C           2.2759    0.1938   -2.4557 C.3     1  UNL1        0.0272
     15 H           2.7919   -0.1533    0.9666 H       1  UNL1        0.1253
     16 H           4.8376   -0.8547   -0.7755 H       1  UNL1        0.0477
     17 H           4.8376    0.8836   -0.5992 H       1  UNL1        0.0477
     18 H           4.6309    1.1301   -3.0286 H       1  UNL1        0.0442
     19 H           4.6309   -0.6083   -3.2049 H       1  UNL1        0.0442
     20 H           6.5909   -1.8724   -2.6366 H       1  UNL1        0.0463
     21 H           5.3709   -1.1987   -0.6209 H       1  UNL1        0.0293
     22 H           6.7976   -0.3804   -0.0309 H       1  UNL1        0.0293
     23 H           8.0176   -2.5057   -0.0332 H       1  UNL1        0.0424
     24 H           6.5909   -3.3240   -0.6232 H       1  UNL1        0.0424
     25 H           5.4376   -2.6456    1.3456 H       1  UNL1        0.1219
     26 H           6.4231   -4.8324    1.7785 H       1  UNL1        0.0424
     27 H           7.3235   -4.3067    2.8337 H       1  UNL1        0.0424
     28 H           8.9651   -1.5486   -2.8546 H       1  UNL1        0.0293
     29 H           9.1438   -0.2249   -2.0623 H       1  UNL1        0.0293
     30 H           7.3888   -0.4757   -4.5121 H       1  UNL1        0.0442
     31 H           7.5825    1.0052   -4.5526 H       1  UNL1        0.0442
     32 H           1.6986   -0.6532   -2.7626 H       1  UNL1        0.0477
     33 H           1.5098    0.9073   -2.6766 H       1  UNL1        0.0477
@<TRIPOS>BOND
     1     1     2    2
     2     2     3   am
     3     3     4    1
     4     4     5    1
     5     5     6    1
     6     6     7    1
     7     7     8    1
     8     8     9    1
     9     9    10    1
    10    10    11    1
    11    11    12    1
    12     7    12    1
    13     6    13    1
    14    13    14    1
    15     3    14    1
    16     2    15    1
    17     4    16    1
    18     4    17    1
    19     5    18    1
    20     5    19    1
    21     7    20    1
    22     8    21    1
    23     8    22    1
    24     9    23    1
    25     9    24    1
    26    10    25    1
    27    11    26    1
    28    11    27    1
    29    12    28    1
    30    12    29    1
    31    13    30    1
    32    13    31    1
    33    14    32    1
    34    14    33    1
