@<TRIPOS>MOLECULE
*****
 12 12 0 0 0
SMALL
GASTEIGER

@<TRIPOS>ATOM
      1 C           0.9879   -0.0733   -0.0669 C.ar    1  UNL1       -0.0618
      2 C           2.4281   -0.0733   -0.0669 C.ar    1  UNL1       -0.0618
      3 C           3.1482   -0.4122    1.1334 C.ar    1  UNL1       -0.0618
      4 C           4.5884   -0.4122    1.1334 C.ar    1  UNL1       -0.0618
      5 C           5.3085   -0.7511    2.3338 C.ar    1  UNL1       -0.0618
      6 C           0.2678    0.2655   -1.2672 C.ar    1  UNL1       -0.0618
      7 H           0.4719   -0.3162    0.7932 H       1  UNL1        0.0618
      8 H           2.9441    0.1695   -0.9270 H       1  UNL1        0.0618
      9 H           2.6322   -0.6551    1.9936 H       1  UNL1        0.0618
     10 H           5.1044   -0.1694    0.2733 H       1  UNL1        0.0618
     11 H           5.9951   -0.9605    3.0752 H       1  UNL1        0.0618
     12 H          -0.4188    0.4749   -2.0087 H       1  UNL1        0.0618
@<TRIPOS>BOND
     1     1     2   ar
     2     2     3   ar
     3     3     4   ar
     4     4     5   ar
     5     5     6   ar
     6     1     6   ar
     7     1     7    1
     8     2     8    1
     9     3     9    1
    10     4    10    1
    11     5    11    1
    12     6    12    1
