@<TRIPOS>MOLECULE
*****
 6 5 0 0 0
SMALL
GASTEIGER

@<TRIPOS>ATOM
      1 C           0.9461   -0.0798   -0.0270 C.3     1  UNL1        0.0330
      2 O           2.3661   -0.0798   -0.0270 O.3     1  UNL1       -0.3982
      3 H           0.5894    0.6924   -0.6762 H       1  UNL1        0.0521
      4 H           0.5894    0.0963    0.9663 H       1  UNL1        0.0521
      5 H           0.5894   -1.0281   -0.3711 H       1  UNL1        0.0521
      6 H           2.6894    0.7799    0.2849 H       1  UNL1        0.2090
@<TRIPOS>BOND
     1     1     2    1
     2     1     3    1
     3     1     4    1
     4     1     5    1
     5     2     6    1
