@<TRIPOS>MOLECULE
*****
 8 7 0 0 0
SMALL
GASTEIGER

@<TRIPOS>ATOM
      1 C           1.0797    0.0574   -0.0191 C.3     1  UNL1       -0.0681
      2 C           2.5997    0.0574   -0.0191 C.3     1  UNL1       -0.0681
      3 H           0.7230   -0.9498   -0.0766 H       1  UNL1        0.0227
      4 H           0.7230    0.6108   -0.8625 H       1  UNL1        0.0227
      5 H           0.7230    0.5111    0.8819 H       1  UNL1        0.0227
      6 H           2.9563   -0.3964   -0.9201 H       1  UNL1        0.0227
      7 H           2.9563   -0.4961    0.8244 H       1  UNL1        0.0227
      8 H           2.9563    1.0645    0.0385 H       1  UNL1        0.0227
@<TRIPOS>BOND
     1     1     2    1
     2     1     3    1
     3     1     4    1
     4     1     5    1
     5     2     6    1
     6     2     7    1
     7     2     8    1
