@<TRIPOS>MOLECULE
*****
 60 60 0 0 0
SMALL
GASTEIGER

@<TRIPOS>ATOM
      1 N           1.0556   -0.0691   -0.0462 N.3     1  UNL1       -0.3279
      2 C           2.5256   -0.0691   -0.0462 C.3     1  UNL1        0.0166
      3 C           3.0322   -0.1663   -1.4760 C.3     1  UNL1        0.0600
      4 O           4.4522   -0.1663   -1.4760 O.3     1  UNL1       -0.3763
      5 C           4.9256   -0.2570   -2.8117 C.3     1  UNL1        0.0711
      6 C           6.4456   -0.2570   -2.8117 C.3     1  UNL1        0.0711
      7 O           6.9189   -0.3478   -4.1474 O.3     1  UNL1       -0.3752
      8 C           8.3389   -0.3478   -4.1474 C.3     1  UNL1        0.0711
      9 C           8.8455   -0.4449   -5.5772 C.3     1  UNL1        0.0711
     10 O          10.2655   -0.4449   -5.5772 O.3     1  UNL1       -0.3752
     11 C          10.7389   -0.5357   -6.9129 C.3     1  UNL1        0.0711
     12 C          12.2589   -0.5357   -6.9129 C.3     1  UNL1        0.0711
     13 O          12.7322   -0.6265   -8.2486 O.3     1  UNL1       -0.3757
     14 C          14.1522   -0.6265   -8.2486 C.3     1  UNL1        0.0673
     15 C          14.6589   -0.7236   -9.6784 C.3     1  UNL1        0.0665
     16 N          16.1289   -0.7236   -9.6784 N.ar    1  UNL1       -0.2492
     17 C          16.8253   -0.8054  -10.8818 C.ar    1  UNL1        0.0487
     18 C          18.2655   -0.8054  -10.8818 C.ar    1  UNL1        0.0828
     19 C          19.0255   -0.7162   -9.5685 C.3     1  UNL1       -0.0071
     20 C          18.0377   -0.6378   -8.4159 C.3     1  UNL1       -0.0475
     21 C          18.7977   -0.5486   -7.1025 C.3     1  UNL1       -0.0506
     22 C          17.8100   -0.4703   -5.9499 C.3     1  UNL1       -0.0297
     23 C          18.5700   -0.3810   -4.6365 C.3     1  UNL1        0.0442
     24 O          17.6472   -0.3079   -3.5597 O.3     1  UNL1       -0.3950
     25 N          18.9619   -0.8872  -12.0853 N.ar    1  UNL1       -0.1345
     26 N          16.8016   -0.6446   -8.5159 N.ar    1  UNL1       -0.0654
     27 H           0.7156   -0.0039    0.9132 H       1  UNL1        0.1183
     28 H           0.7156   -0.9326   -0.4695 H       1  UNL1        0.1183
     29 H           2.8822   -0.9065    0.5162 H       1  UNL1        0.0444
     30 H           2.8822    0.8367    0.3978 H       1  UNL1        0.0444
     31 H           2.6756    0.6712   -2.0385 H       1  UNL1        0.0572
     32 H           2.6756   -1.0721   -1.9200 H       1  UNL1        0.0572
     33 H           4.5689    0.5804   -3.3742 H       1  UNL1        0.0583
     34 H           4.5689   -1.1629   -3.2557 H       1  UNL1        0.0583
     35 H           6.8022   -1.0945   -2.2492 H       1  UNL1        0.0583
     36 H           6.8022    0.6488   -2.3677 H       1  UNL1        0.0583
     37 H           8.6956   -1.1852   -3.5850 H       1  UNL1        0.0583
     38 H           8.6956    0.5580   -3.7034 H       1  UNL1        0.0583
     39 H           8.4889    0.3925   -6.1397 H       1  UNL1        0.0583
     40 H           8.4889   -1.3508   -6.0212 H       1  UNL1        0.0583
     41 H          10.3822    0.3017   -7.4754 H       1  UNL1        0.0583
     42 H          10.3822   -1.4416   -7.3569 H       1  UNL1        0.0583
     43 H          12.6155   -1.3732   -6.3504 H       1  UNL1        0.0583
     44 H          12.6155    0.3701   -6.4689 H       1  UNL1        0.0583
     45 H          14.5089   -1.4639   -7.6862 H       1  UNL1        0.0578
     46 H          14.5089    0.2794   -7.8046 H       1  UNL1        0.0578
     47 H          14.3022    0.1138  -10.2409 H       1  UNL1        0.0532
     48 H          14.3022   -1.6295  -10.1224 H       1  UNL1        0.0532
     49 H          16.3093   -0.8660  -11.7735 H       1  UNL1        0.0845
     50 H          19.6406    0.1593   -9.5712 H       1  UNL1        0.0329
     51 H          19.6406   -1.5840   -9.4527 H       1  UNL1        0.0329
     52 H          17.4226   -1.5133   -8.4132 H       1  UNL1        0.0269
     53 H          17.4226    0.2299   -8.5316 H       1  UNL1        0.0269
     54 H          19.4129    0.3269   -7.1052 H       1  UNL1        0.0266
     55 H          19.4129   -1.4164   -6.9867 H       1  UNL1        0.0266
     56 H          17.1948   -1.3458   -5.9472 H       1  UNL1        0.0287
     57 H          17.1948    0.3975   -6.0657 H       1  UNL1        0.0287
     58 H          19.1851    0.4945   -4.6392 H       1  UNL1        0.0557
     59 H          19.1851   -1.2488   -4.5208 H       1  UNL1        0.0557
     60 H          17.0896    0.4788   -3.6647 H       1  UNL1        0.2094
@<TRIPOS>BOND
     1     1     2    1
     2     2     3    1
     3     3     4    1
     4     4     5    1
     5     5     6    1
     6     6     7    1
     7     7     8    1
     8     8     9    1
     9     9    10    1
    10    10    11    1
    11    11    12    1
    12    12    13    1
    13    13    14    1
    14    14    15    1
    15    15    16    1
    16    16    17   ar
    17    17    18   ar
    18    18    19    1
    19    19    20    1
    20    20    21    1
    21    21    22    1
    22    22    23    1
    23    23    24    1
    24    18    25   ar
    25    25    26   ar
    26    16    26   ar
    27     1    27    1
    28     1    28    1
    29     2    29    1
    30     2    30    1
    31     3    31    1
    32     3    32    1
    33     5    33    1
    34     5    34    1
    35     6    35    1
    36     6    36    1
    37     8    37    1
    38     8    38    1
    39     9    39    1
    40     9    40    1
    41    11    41    1
    42    11    42    1
    43    12    43    1
    44    12    44    1
    45    14    45    1
    46    14    46    1
    47    15    47    1
    48    15    48    1
    49    17    49    1
    50    19    50    1
    51    19    51    1
    52    20    52    1
    53    20    53    1
    54    21    54    1
    55    21    55    1
    56    22    56    1
    57    22    57    1
    58    23    58    1
    59    23    59    1
    60    24    60    1
