@<TRIPOS>MOLECULE
*****
 22 22 0 0 0
SMALL
GASTEIGER

@<TRIPOS>ATOM
      1 C           0.9664    0.0537   -0.0774 C.3     1  UNL1       -0.0495
      2 C           2.4864    0.0537   -0.0774 C.3     1  UNL1        0.0091
      3 N           2.9764    0.8591   -1.2053 N.am    1  UNL1       -0.3116
      4 C           4.4216    1.0152   -1.4239 C.2     1  UNL1        0.2441
      5 O           5.2475    0.4538   -0.6378 O.2     1  UNL1       -0.2702
      6 C           4.9283    1.8480   -2.5901 C.ar    1  UNL1        0.0367
      7 C           6.3442    2.0010   -2.8043 C.ar    1  UNL1       -0.0496
      8 C           6.8243    2.7901   -3.9093 C.ar    1  UNL1       -0.0610
      9 C           8.2402    2.9430   -4.1234 C.ar    1  UNL1       -0.0617
     10 C           8.7203    3.7321   -5.2284 C.ar    1  UNL1       -0.0610
     11 C           3.9924    2.4842   -3.4809 C.ar    1  UNL1       -0.0496
     12 H           0.6097   -0.5326    0.7436 H       1  UNL1        0.0245
     13 H           0.6097   -0.3642   -0.9956 H       1  UNL1        0.0245
     14 H           0.6097    1.0578    0.0198 H       1  UNL1        0.0245
     15 H           2.8430   -0.9505   -0.1746 H       1  UNL1        0.0459
     16 H           2.8430    0.4715    0.8408 H       1  UNL1        0.0459
     17 H           2.3366    1.2940   -1.8142 H       1  UNL1        0.1490
     18 H           7.0149    1.5451   -2.1659 H       1  UNL1        0.0625
     19 H           6.1537    3.2459   -4.5476 H       1  UNL1        0.0618
     20 H           8.9109    2.4872   -3.4851 H       1  UNL1        0.0618
     21 H           9.4178    4.1741   -5.8474 H       1  UNL1        0.0618
     22 H           2.9849    2.6142   -3.6630 H       1  UNL1        0.0625
@<TRIPOS>BOND
     1     1     2    1
     2     2     3    1
     3     3     4   am
     4     4     5    2
     5     4     6    1
     6     6     7   ar
     7     7     8   ar
     8     8     9   ar
     9     9    10   ar
    10    10    11   ar
    11     6    11   ar
    12     1    12    1
    13     1    13    1
    14     1    14    1
    15     2    15    1
    16     2    16    1
    17     3    17    1
    18     7    18    1
    19     8    19    1
    20     9    20    1
    21    10    21    1
    22    11    22    1
