@<TRIPOS>MOLECULE
*****
 27 26 0 0 0
SMALL
GASTEIGER

@<TRIPOS>ATOM
      1 O           0.9483   -0.0078   -0.0853 O.2     1  UNL1       -0.2795
      2 C           2.2192   -0.0078   -0.0853 C.2     1  UNL1        0.2000
      3 N           2.9542   -0.6046   -1.2097 N.am    1  UNL1       -0.3157
      4 C           4.4242   -0.6046   -1.2097 C.3     1  UNL1        0.0348
      5 C           4.9309   -1.2765   -2.4756 C.3     1  UNL1        0.0632
      6 O           6.3509   -1.2765   -2.4756 O.3     1  UNL1       -0.3760
      7 C           6.8242   -1.9042   -3.6581 C.3     1  UNL1        0.0711
      8 C           8.3442   -1.9042   -3.6581 C.3     1  UNL1        0.0711
      9 O           8.8175   -2.5318   -4.8406 O.3     1  UNL1       -0.3752
     10 C          10.2375   -2.5318   -4.8406 C.3     1  UNL1        0.0708
     11 C          10.7442   -3.2037   -6.1065 C.3     1  UNL1        0.0676
     12 O          12.1642   -3.2037   -6.1065 O.3     1  UNL1       -0.3927
     13 H           2.7352    0.4112    0.7042 H       1  UNL1        0.1251
     14 H           2.4620   -1.0044   -1.9628 H       1  UNL1        0.1485
     15 H           4.7809   -1.1399   -0.3546 H       1  UNL1        0.0484
     16 H           4.7809    0.4035   -1.1738 H       1  UNL1        0.0484
     17 H           4.5742   -0.7413   -3.3307 H       1  UNL1        0.0575
     18 H           4.5742   -2.2847   -2.5115 H       1  UNL1        0.0575
     19 H           6.4675   -1.3689   -4.5132 H       1  UNL1        0.0583
     20 H           6.4675   -2.9123   -3.6940 H       1  UNL1        0.0583
     21 H           8.7009   -2.4394   -2.8030 H       1  UNL1        0.0583
     22 H           8.7009   -0.8960   -3.6221 H       1  UNL1        0.0583
     23 H          10.5942   -3.0670   -3.9855 H       1  UNL1        0.0583
     24 H          10.5942   -1.5236   -4.8047 H       1  UNL1        0.0583
     25 H          10.3875   -2.6684   -6.9616 H       1  UNL1        0.0580
     26 H          10.3875   -4.2118   -6.1424 H       1  UNL1        0.0580
     27 H          12.4875   -2.2897   -6.0739 H       1  UNL1        0.2095
@<TRIPOS>BOND
     1     1     2    2
     2     2     3   am
     3     3     4    1
     4     4     5    1
     5     5     6    1
     6     6     7    1
     7     7     8    1
     8     8     9    1
     9     9    10    1
    10    10    11    1
    11    11    12    1
    12     2    13    1
    13     3    14    1
    14     4    15    1
    15     4    16    1
    16     5    17    1
    17     5    18    1
    18     7    19    1
    19     7    20    1
    20     8    21    1
    21     8    22    1
    22    10    23    1
    23    10    24    1
    24    11    25    1
    25    11    26    1
    26    12    27    1
