@<TRIPOS>MOLECULE
*****
 73 75 0 0 0
SMALL
GASTEIGER

@<TRIPOS>ATOM
      1 C           1.0782   -0.0273    0.0560 C.3     1  UNL1       -0.0652
      2 C           2.5982   -0.0273    0.0560 C.3     1  UNL1       -0.0545
      3 C           3.1049    0.6607   -1.2012 C.3     1  UNL1       -0.0373
      4 C           4.6249    0.6607   -1.2012 C.3     1  UNL1        0.0165
      5 N           5.1149    1.3260   -2.4169 N.am    1  UNL1       -0.2811
      6 C           4.1596    1.8624   -3.3971 C.3     1  UNL1        0.0412
      7 C           2.7411    1.6002   -2.9180 C.ar    1  UNL1       -0.0301
      8 C           1.6210    2.0348   -3.7120 C.ar    1  UNL1       -0.0571
      9 C           0.2770    1.7864   -3.2581 C.ar    1  UNL1       -0.0615
     10 C          -0.8432    2.2209   -4.0522 C.ar    1  UNL1       -0.0617
     11 C          -2.1872    1.9725   -3.5982 C.ar    1  UNL1       -0.0615
     12 C           2.5173    0.9172   -1.6699 C.ar    1  UNL1       -0.0571
     13 C           6.5601    1.4550   -2.6526 C.2     1  UNL1        0.3067
     14 O           7.3860    0.9912   -1.8052 O.2     1  UNL1       -0.2523
     15 N           7.0501    2.1203   -3.8683 N.am    1  UNL1       -0.2693
     16 C           8.4954    2.2493   -4.1040 C.ar    1  UNL1        0.0350
     17 C           8.9754    2.9012   -5.2951 C.ar    1  UNL1       -0.0370
     18 C          10.3914    3.0275   -5.5260 C.ar    1  UNL1       -0.0182
     19 C          10.8715    3.6794   -6.7171 C.ar    1  UNL1        0.1206
     20 O           9.9487    4.1975   -7.6639 O.3     1  UNL1       -0.4920
     21 C           8.5526    4.0729   -7.4363 C.3     1  UNL1        0.0896
     22 C           7.7926    4.7049   -8.5910 C.3     1  UNL1       -0.0186
     23 C           6.2982    4.5716   -8.3474 C.3     1  UNL1       -0.0499
     24 C           5.5382    5.2035   -9.5021 C.3     1  UNL1       -0.0513
     25 C           4.0438    5.0702   -9.2585 C.3     1  UNL1       -0.0333
     26 C           3.2838    5.7021  -10.4132 C.3     1  UNL1        0.0432
     27 N           1.8385    5.5732  -10.1776 N.ar    1  UNL1       -0.2514
     28 C           0.9334    6.0814  -11.1063 C.ar    1  UNL1        0.0499
     29 C          -0.4825    5.9551  -10.8754 C.ar    1  UNL1        0.0963
     30 C          -0.9892    5.2671   -9.6183 C.3     1  UNL1        0.0393
     31 N           0.1542    4.8235   -8.8078 N.3     1  UNL1       -0.3248
     32 N          -1.3876    6.4633  -11.8041 N.ar    1  UNL1       -0.1332
     33 N           1.3901    4.9642   -9.0648 N.ar    1  UNL1       -0.0654
     34 C          12.2874    3.8057   -6.9480 C.ar    1  UNL1       -0.0182
     35 C           9.4313    1.7238   -3.1437 C.ar    1  UNL1       -0.0370
     36 H           0.7216   -0.5116    0.9409 H       1  UNL1        0.0230
     37 H           0.7216   -0.5516   -0.8059 H       1  UNL1        0.0230
     38 H           0.7216    0.9812    0.0329 H       1  UNL1        0.0230
     39 H           2.9549   -1.0359    0.0790 H       1  UNL1        0.0263
     40 H           2.9549    0.4969    0.9179 H       1  UNL1        0.0263
     41 H           2.7482    1.6692   -1.2242 H       1  UNL1        0.0280
     42 H           2.7482    0.1364   -2.0631 H       1  UNL1        0.0280
     43 H           4.9816   -0.3479   -1.1781 H       1  UNL1        0.0465
     44 H           4.9816    1.1849   -0.3393 H       1  UNL1        0.0465
     45 H           4.3113    1.3835   -4.3418 H       1  UNL1        0.0514
     46 H           4.3113    2.9163   -3.5030 H       1  UNL1        0.0514
     47 H           1.7814    2.5242   -4.6063 H       1  UNL1        0.0621
     48 H           0.1166    1.2969   -2.3638 H       1  UNL1        0.0618
     49 H          -0.6828    2.7103   -4.9465 H       1  UNL1        0.0618
     50 H          -3.2186    1.9897   -3.6297 H       1  UNL1        0.0618
     51 H           3.0019    0.4798   -0.8707 H       1  UNL1        0.0621
     52 H           6.4104    2.4796   -4.5248 H       1  UNL1        0.1564
     53 H           8.3048    3.2777   -5.9832 H       1  UNL1        0.0637
     54 H          11.0620    2.6509   -4.8379 H       1  UNL1        0.0655
     55 H           8.2941    4.5700   -6.5247 H       1  UNL1        0.0696
     56 H           8.2941    3.0372   -7.3635 H       1  UNL1        0.0696
     57 H           8.0511    4.2079   -9.5026 H       1  UNL1        0.0298
     58 H           8.0511    5.7406   -8.6638 H       1  UNL1        0.0298
     59 H           6.0397    5.0686   -7.4358 H       1  UNL1        0.0266
     60 H           6.0397    3.5358   -8.2746 H       1  UNL1        0.0266
     61 H           5.7967    4.7065  -10.4137 H       1  UNL1        0.0266
     62 H           5.7967    6.2393   -9.5749 H       1  UNL1        0.0266
     63 H           3.7853    5.5672   -8.3468 H       1  UNL1        0.0283
     64 H           3.7853    4.0344   -9.1857 H       1  UNL1        0.0283
     65 H           3.5423    5.2051  -11.3248 H       1  UNL1        0.0509
     66 H           3.5423    6.7379  -10.4860 H       1  UNL1        0.0509
     67 H           1.2774    6.5485  -11.9598 H       1  UNL1        0.0845
     68 H          -1.5836    4.4200   -9.8902 H       1  UNL1        0.0488
     69 H          -1.5836    5.9527   -9.0513 H       1  UNL1        0.0488
     70 H           0.7208    4.1699   -9.3482 H       1  UNL1        0.1186
     71 H          -0.1858    4.3618   -7.9642 H       1  UNL1        0.1186
     72 H          13.1472    4.0797   -7.4487 H       1  UNL1        0.0655
     73 H           9.4957    1.2293   -2.2402 H       1  UNL1        0.0637
@<TRIPOS>BOND
     1     1     2    1
     2     2     3    1
     3     3     4    1
     4     4     5    1
     5     5     6    1
     6     6     7    1
     7     7     8   ar
     8     8     9   ar
     9     9    10   ar
    10    10    11   ar
    11    11    12   ar
    12     7    12   ar
    13     5    13   am
    14    13    14    2
    15    13    15   am
    16    15    16    1
    17    16    17   ar
    18    17    18   ar
    19    18    19   ar
    20    19    20    1
    21    20    21    1
    22    21    22    1
    23    22    23    1
    24    23    24    1
    25    24    25    1
    26    25    26    1
    27    26    27    1
    28    27    28   ar
    29    28    29   ar
    30    29    30    1
    31    30    31    1
    32    29    32   ar
    33    32    33   ar
    34    27    33   ar
    35    19    34   ar
    36    34    35   ar
    37    16    35   ar
    38     1    36    1
    39     1    37    1
    40     1    38    1
    41     2    39    1
    42     2    40    1
    43     3    41    1
    44     3    42    1
    45     4    43    1
    46     4    44    1
    47     6    45    1
    48     6    46    1
    49     8    47    1
    50     9    48    1
    51    10    49    1
    52    11    50    1
    53    12    51    1
    54    15    52    1
    55    17    53    1
    56    18    54    1
    57    21    55    1
    58    21    56    1
    59    22    57    1
    60    22    58    1
    61    23    59    1
    62    23    60    1
    63    24    61    1
    64    24    62    1
    65    25    63    1
    66    25    64    1
    67    26    65    1
    68    26    66    1
    69    28    67    1
    70    30    68    1
    71    30    69    1
    72    31    70    1
    73    31    71    1
    74    34    72    1
    75    35    73    1
