@<TRIPOS>MOLECULE
*****
 39 38 0 0 0
SMALL
GASTEIGER

@<TRIPOS>ATOM
      1 O           1.0147    0.0734   -0.0663 O.2     1  UNL1       -0.2986
      2 C           2.2856    0.0734   -0.0663 C.2     1  UNL1        0.1458
      3 C           3.0456    1.2760    0.4688 C.3     1  UNL1        0.1028
      4 O           4.4417    1.0390    0.3633 O.3     1  UNL1       -0.3703
      5 C           5.1517    2.1625    0.8633 C.3     1  UNL1        0.0715
      6 C           6.6461    1.9087    0.7504 C.3     1  UNL1        0.0711
      7 O           7.3561    3.0323    1.2503 O.3     1  UNL1       -0.3752
      8 C           8.7522    2.7952    1.1448 C.3     1  UNL1        0.0711
      9 C           9.5122    3.9979    1.6800 C.3     1  UNL1        0.0711
     10 O          10.9083    3.7608    1.5745 O.3     1  UNL1       -0.3752
     11 C          11.6183    4.8843    2.0745 C.3     1  UNL1        0.0711
     12 C          13.1127    4.6306    1.9615 C.3     1  UNL1        0.0711
     13 O          13.8227    5.7541    2.4615 O.3     1  UNL1       -0.3760
     14 C          15.2188    5.5170    2.3560 C.3     1  UNL1        0.0632
     15 C          15.9788    6.7197    2.8912 C.3     1  UNL1        0.0348
     16 N          17.4241    6.4743    2.7820 N.am    1  UNL1       -0.3157
     17 C          18.3793    7.4951    3.2362 C.2     1  UNL1        0.2000
     18 O          19.6288    7.2829    3.1418 O.2     1  UNL1       -0.2795
     19 H           2.8016   -0.7432   -0.4297 H       1  UNL1        0.1051
     20 H           2.7871    1.4335    1.4951 H       1  UNL1        0.0636
     21 H           2.7871    2.1438   -0.1013 H       1  UNL1        0.0636
     22 H           4.8932    2.3199    1.8896 H       1  UNL1        0.0583
     23 H           4.8932    3.0303    0.2932 H       1  UNL1        0.0583
     24 H           6.9046    1.7513   -0.2759 H       1  UNL1        0.0583
     25 H           6.9046    1.0409    1.3204 H       1  UNL1        0.0583
     26 H           9.0107    2.6378    0.1185 H       1  UNL1        0.0583
     27 H           9.0107    1.9274    1.7149 H       1  UNL1        0.0583
     28 H           9.2537    4.1553    2.7063 H       1  UNL1        0.0583
     29 H           9.2537    4.8657    1.1099 H       1  UNL1        0.0583
     30 H          11.3598    5.0418    3.1008 H       1  UNL1        0.0583
     31 H          11.3598    5.7521    1.5044 H       1  UNL1        0.0583
     32 H          13.3712    4.4731    0.9352 H       1  UNL1        0.0583
     33 H          13.3712    3.7628    2.5316 H       1  UNL1        0.0583
     34 H          15.4773    5.3596    1.3297 H       1  UNL1        0.0575
     35 H          15.4773    4.6492    2.9261 H       1  UNL1        0.0575
     36 H          15.7203    6.8771    3.9175 H       1  UNL1        0.0484
     37 H          15.7203    7.5875    2.3211 H       1  UNL1        0.0484
     38 H          17.7522    5.6263    2.4046 H       1  UNL1        0.1485
     39 H          18.0353    8.3840    3.6318 H       1  UNL1        0.1251
@<TRIPOS>BOND
     1     1     2    2
     2     2     3    1
     3     3     4    1
     4     4     5    1
     5     5     6    1
     6     6     7    1
     7     7     8    1
     8     8     9    1
     9     9    10    1
    10    10    11    1
    11    11    12    1
    12    12    13    1
    13    13    14    1
    14    14    15    1
    15    15    16    1
    16    16    17   am
    17    17    18    2
    18     2    19    1
    19     3    20    1
    20     3    21    1
    21     5    22    1
    22     5    23    1
    23     6    24    1
    24     6    25    1
    25     8    26    1
    26     8    27    1
    27     9    28    1
    28     9    29    1
    29    11    30    1
    30    11    31    1
    31    12    32    1
    32    12    33    1
    33    14    34    1
    34    14    35    1
    35    15    36    1
    36    15    37    1
    37    16    38    1
    38    17    39    1
