@<TRIPOS>MOLECULE
*****
 30 29 0 0 0
SMALL
GASTEIGER

@<TRIPOS>ATOM
      1 C           0.9261   -0.0613   -0.0279 C.3     1  UNL1       -0.0653
      2 C           2.4461   -0.0613   -0.0279 C.3     1  UNL1       -0.0559
      3 C           2.9527   -1.3600    0.5779 C.3     1  UNL1       -0.0533
      4 C           4.4727   -1.3600    0.5779 C.3     1  UNL1       -0.0531
      5 C           4.9794   -2.6588    1.1837 C.3     1  UNL1       -0.0526
      6 C           6.4994   -2.6588    1.1837 C.3     1  UNL1       -0.0448
      7 C           7.0060   -3.9575    1.7894 C.3     1  UNL1        0.0239
      8 C           8.5260   -3.9575    1.7894 C.2     1  UNL1        0.2128
      9 O           9.1615   -2.9600    1.3242 O.2     1  UNL1       -0.2758
     10 N           9.2610   -5.1112    2.3276 N.am    1  UNL1       -0.3184
     11 C          10.7310   -5.1112    2.3276 C.3     1  UNL1        0.0001
     12 H           0.5694    0.8530   -0.4543 H       1  UNL1        0.0230
     13 H           0.5694   -0.1491    0.9771 H       1  UNL1        0.0230
     14 H           0.5694   -0.8877   -0.6064 H       1  UNL1        0.0230
     15 H           2.8027    0.7651    0.5507 H       1  UNL1        0.0263
     16 H           2.8027    0.0266   -1.0328 H       1  UNL1        0.0263
     17 H           2.5960   -2.1864   -0.0007 H       1  UNL1        0.0265
     18 H           2.5960   -1.4479    1.5829 H       1  UNL1        0.0265
     19 H           4.8294   -0.5336    1.1564 H       1  UNL1        0.0265
     20 H           4.8294   -1.2722   -0.4271 H       1  UNL1        0.0265
     21 H           4.6227   -3.4852    0.6051 H       1  UNL1        0.0265
     22 H           4.6227   -2.7466    2.1886 H       1  UNL1        0.0265
     23 H           6.8560   -1.8323    1.7622 H       1  UNL1        0.0270
     24 H           6.8560   -2.5709    0.1787 H       1  UNL1        0.0270
     25 H           6.6494   -4.7839    1.2109 H       1  UNL1        0.0358
     26 H           6.6494   -4.0453    2.7944 H       1  UNL1        0.0358
     27 H           8.7688   -5.8839    2.6880 H       1  UNL1        0.1484
     28 H          11.0877   -4.1970    1.9011 H       1  UNL1        0.0426
     29 H          11.0877   -5.9377    1.7490 H       1  UNL1        0.0426
     30 H          11.0877   -5.1991    3.3325 H       1  UNL1        0.0426
@<TRIPOS>BOND
     1     1     2    1
     2     2     3    1
     3     3     4    1
     4     4     5    1
     5     5     6    1
     6     6     7    1
     7     7     8    1
     8     8     9    2
     9     8    10   am
    10    10    11    1
    11     1    12    1
    12     1    13    1
    13     1    14    1
    14     2    15    1
    15     2    16    1
    16     3    17    1
    17     3    18    1
    18     4    19    1
    19     4    20    1
    20     5    21    1
    21     5    22    1
    22     6    23    1
    23     6    24    1
    24     7    25    1
    25     7    26    1
    26    10    27    1
    27    11    28    1
    28    11    29    1
    29    11    30    1
