@<TRIPOS>MOLECULE
*****
 40 39 0 0 0
SMALL
GASTEIGER

@<TRIPOS>ATOM
      1 C           0.9390    0.0546    0.0574 C.3     1  UNL1       -0.0416
      2 C           2.4590    0.0546    0.0574 C.3     1  UNL1        0.0449
      3 O           2.9323    1.2889   -0.4613 O.3     1  UNL1       -0.3778
      4 C           4.3523    1.2889   -0.4613 C.3     1  UNL1        0.0710
      5 C           4.8590    2.6100   -1.0166 C.3     1  UNL1        0.0711
      6 O           6.2790    2.6100   -1.0166 O.3     1  UNL1       -0.3752
      7 C           6.7523    3.8442   -1.5353 C.3     1  UNL1        0.0711
      8 C           8.2723    3.8442   -1.5353 C.3     1  UNL1        0.0711
      9 O           8.7456    5.0784   -2.0540 O.3     1  UNL1       -0.3752
     10 C          10.1656    5.0784   -2.0540 C.3     1  UNL1        0.0711
     11 C          10.6723    6.3996   -2.6092 C.3     1  UNL1        0.0710
     12 O          12.0923    6.3996   -2.6092 O.3     1  UNL1       -0.3770
     13 C          12.5656    7.6338   -3.1279 C.3     1  UNL1        0.0560
     14 C          14.0856    7.6338   -3.1279 C.3     1  UNL1        0.0471
     15 C          14.5923    8.9549   -3.6832 C.2     1  UNL1        0.2127
     16 N          13.6370    9.9850   -4.1161 N.am    1  UNL1       -0.3293
     17 O          15.8418    9.1690   -3.7732 O.2     1  UNL1       -0.2760
     18 H           0.5823   -0.8754    0.4482 H       1  UNL1        0.0252
     19 H           0.5823    0.1812   -0.9435 H       1  UNL1        0.0252
     20 H           0.5823    0.8581    0.6673 H       1  UNL1        0.0252
     21 H           2.8157   -0.7488   -0.5526 H       1  UNL1        0.0557
     22 H           2.8157   -0.0719    1.0582 H       1  UNL1        0.0557
     23 H           4.7090    0.4854   -1.0713 H       1  UNL1        0.0583
     24 H           4.7090    1.1624    0.5395 H       1  UNL1        0.0583
     25 H           4.5023    3.4135   -0.4066 H       1  UNL1        0.0583
     26 H           4.5023    2.7365   -2.0174 H       1  UNL1        0.0583
     27 H           6.3956    4.6477   -0.9253 H       1  UNL1        0.0583
     28 H           6.3956    3.9707   -2.5361 H       1  UNL1        0.0583
     29 H           8.6290    3.0407   -2.1453 H       1  UNL1        0.0583
     30 H           8.6290    3.7177   -0.5344 H       1  UNL1        0.0583
     31 H          10.5223    4.2750   -2.6640 H       1  UNL1        0.0583
     32 H          10.5223    4.9519   -1.0532 H       1  UNL1        0.0583
     33 H          10.3156    7.2031   -1.9992 H       1  UNL1        0.0583
     34 H          10.3156    6.5261   -3.6101 H       1  UNL1        0.0583
     35 H          12.2090    8.4373   -2.5180 H       1  UNL1        0.0564
     36 H          12.2090    7.7603   -4.1288 H       1  UNL1        0.0564
     37 H          14.4423    6.8303   -3.7379 H       1  UNL1        0.0381
     38 H          14.4423    7.5073   -2.1271 H       1  UNL1        0.0381
     39 H          12.6691    9.8191   -4.0464 H       1  UNL1        0.1449
     40 H          13.9652   10.8407   -4.4757 H       1  UNL1        0.1449
@<TRIPOS>BOND
     1     1     2    1
     2     2     3    1
     3     3     4    1
     4     4     5    1
     5     5     6    1
     6     6     7    1
     7     7     8    1
     8     8     9    1
     9     9    10    1
    10    10    11    1
    11    11    12    1
    12    12    13    1
    13    13    14    1
    14    14    15    1
    15    15    16   am
    16    15    17    2
    17     1    18    1
    18     1    19    1
    19     1    20    1
    20     2    21    1
    21     2    22    1
    22     4    23    1
    23     4    24    1
    24     5    25    1
    25     5    26    1
    26     7    27    1
    27     7    28    1
    28     8    29    1
    29     8    30    1
    30    10    31    1
    31    10    32    1
    32    11    33    1
    33    11    34    1
    34    13    35    1
    35    13    36    1
    36    14    37    1
    37    14    38    1
    38    16    39    1
    39    16    40    1
