@<TRIPOS>MOLECULE
*****
 35 34 0 0 0
SMALL
GASTEIGER

@<TRIPOS>ATOM
      1 C           0.9368   -0.0688   -0.0356 C.3     1  UNL1       -0.0648
      2 C           2.4568   -0.0688   -0.0356 C.3     1  UNL1       -0.0476
      3 C           2.9635   -1.3940    0.5099 C.3     1  UNL1        0.0237
      4 C           4.4835   -1.3940    0.5099 C.2     1  UNL1        0.2131
      5 O           5.1189   -0.3762    0.0909 O.2     1  UNL1       -0.2758
      6 N           5.2185   -2.5712    0.9945 N.am    1  UNL1       -0.3131
      7 C           6.6885   -2.5712    0.9945 C.3     1  UNL1        0.0350
      8 C           7.1951   -3.8964    1.5400 C.3     1  UNL1        0.0632
      9 O           8.6151   -3.8964    1.5400 O.3     1  UNL1       -0.3760
     10 C           9.0885   -5.1344    2.0496 C.3     1  UNL1        0.0711
     11 C          10.6085   -5.1344    2.0496 C.3     1  UNL1        0.0710
     12 O          11.0818   -6.3724    2.5592 O.3     1  UNL1       -0.3778
     13 C          12.5018   -6.3724    2.5592 C.3     1  UNL1        0.0449
     14 C          13.0084   -7.6976    3.1047 C.3     1  UNL1       -0.0416
     15 H           0.5801    0.8640   -0.4196 H       1  UNL1        0.0230
     16 H           0.5801   -0.2027    0.9643 H       1  UNL1        0.0230
     17 H           0.5801   -0.8678   -0.6515 H       1  UNL1        0.0230
     18 H           2.8135    0.7302    0.5803 H       1  UNL1        0.0267
     19 H           2.8135    0.0650   -1.0355 H       1  UNL1        0.0267
     20 H           2.6068   -2.1930   -0.1060 H       1  UNL1        0.0358
     21 H           2.6068   -1.5279    1.5098 H       1  UNL1        0.0358
     22 H           4.7262   -3.3597    1.3190 H       1  UNL1        0.1488
     23 H           7.0451   -1.7723    1.6104 H       1  UNL1        0.0484
     24 H           7.0451   -2.4374   -0.0054 H       1  UNL1        0.0484
     25 H           6.8385   -4.6954    0.9241 H       1  UNL1        0.0575
     26 H           6.8385   -4.0303    2.5399 H       1  UNL1        0.0575
     27 H           8.7318   -5.9334    1.4337 H       1  UNL1        0.0583
     28 H           8.7318   -5.2683    3.0495 H       1  UNL1        0.0583
     29 H          10.9651   -4.3354    2.6655 H       1  UNL1        0.0583
     30 H          10.9651   -5.0006    1.0497 H       1  UNL1        0.0583
     31 H          12.8585   -5.5734    3.1751 H       1  UNL1        0.0557
     32 H          12.8585   -6.2386    1.5593 H       1  UNL1        0.0557
     33 H          12.6518   -7.8315    4.1046 H       1  UNL1        0.0252
     34 H          14.0784   -7.6976    3.1047 H       1  UNL1        0.0252
     35 H          12.6518   -8.4966    2.4889 H       1  UNL1        0.0252
@<TRIPOS>BOND
     1     1     2    1
     2     2     3    1
     3     3     4    1
     4     4     5    2
     5     4     6   am
     6     6     7    1
     7     7     8    1
     8     8     9    1
     9     9    10    1
    10    10    11    1
    11    11    12    1
    12    12    13    1
    13    13    14    1
    14     1    15    1
    15     1    16    1
    16     1    17    1
    17     2    18    1
    18     2    19    1
    19     3    20    1
    20     3    21    1
    21     6    22    1
    22     7    23    1
    23     7    24    1
    24     8    25    1
    25     8    26    1
    26    10    27    1
    27    10    28    1
    28    11    29    1
    29    11    30    1
    30    13    31    1
    31    13    32    1
    32    14    33    1
    33    14    34    1
    34    14    35    1
