@<TRIPOS>MOLECULE
*****
 26 25 0 0 0
SMALL
GASTEIGER

@<TRIPOS>ATOM
      1 C           1.0992   -0.0102   -0.0079 C.3     1  UNL1        0.0365
      2 O           2.5192   -0.0102   -0.0079 O.3     1  UNL1       -0.3807
      3 C           2.9925   -1.3483   -0.0506 C.3     1  UNL1        0.0706
      4 C           4.5125   -1.3483   -0.0506 C.3     1  UNL1        0.0711
      5 O           4.9858   -2.6864   -0.0933 O.3     1  UNL1       -0.3760
      6 C           6.4058   -2.6864   -0.0933 C.3     1  UNL1        0.0632
      7 C           6.9125   -4.1188   -0.1390 C.3     1  UNL1        0.0350
      8 N           8.3825   -4.1188   -0.1390 N.am    1  UNL1       -0.3133
      9 C           9.1175   -5.3912   -0.1797 C.2     1  UNL1        0.2100
     10 C           8.3575   -6.7069   -0.2217 C.3     1  UNL1        0.0121
     11 O          10.3884   -5.3912   -0.1797 O.2     1  UNL1       -0.2761
     12 H           0.7425    0.9981    0.0243 H       1  UNL1        0.0524
     13 H           0.7425   -0.5422    0.8493 H       1  UNL1        0.0524
     14 H           0.7425   -0.4865   -0.8972 H       1  UNL1        0.0524
     15 H           2.6358   -1.8246   -0.9399 H       1  UNL1        0.0582
     16 H           2.6358   -1.8804    0.8065 H       1  UNL1        0.0582
     17 H           4.8692   -0.8721    0.8387 H       1  UNL1        0.0583
     18 H           4.8692   -0.8163   -0.9077 H       1  UNL1        0.0583
     19 H           6.7625   -2.2102    0.7960 H       1  UNL1        0.0575
     20 H           6.7625   -2.1544   -0.9504 H       1  UNL1        0.0575
     21 H           6.5558   -4.5950   -1.0283 H       1  UNL1        0.0484
     22 H           6.5558   -4.6508    0.7181 H       1  UNL1        0.0484
     23 H           8.8747   -3.2666   -0.1118 H       1  UNL1        0.1488
     24 H           7.3055   -6.5115   -0.2154 H       1  UNL1        0.0322
     25 H           8.6160   -7.2956    0.6336 H       1  UNL1        0.0322
     26 H           8.6160   -7.2398   -1.1128 H       1  UNL1        0.0322
@<TRIPOS>BOND
     1     1     2    1
     2     2     3    1
     3     3     4    1
     4     4     5    1
     5     5     6    1
     6     6     7    1
     7     7     8    1
     8     8     9   am
     9     9    10    1
    10     9    11    2
    11     1    12    1
    12     1    13    1
    13     1    14    1
    14     3    15    1
    15     3    16    1
    16     4    17    1
    17     4    18    1
    18     6    19    1
    19     6    20    1
    20     7    21    1
    21     7    22    1
    22     8    23    1
    23    10    24    1
    24    10    25    1
    25    10    26    1
