@<TRIPOS>MOLECULE
*****
 43 42 0 0 0
SMALL
GASTEIGER

@<TRIPOS>ATOM
      1 O           0.9241    0.0205   -0.0618 O.2     1  UNL1       -0.2986
      2 C           2.1950    0.0205   -0.0618 C.2     1  UNL1        0.1458
      3 C           2.9550    0.8665   -1.0703 C.3     1  UNL1        0.1028
      4 O           4.3511    0.6998   -0.8715 O.3     1  UNL1       -0.3703
      5 C           5.0611    1.4901   -1.8137 C.3     1  UNL1        0.0715
      6 C           6.5555    1.3116   -1.6009 C.3     1  UNL1        0.0711
      7 O           7.2655    2.1019   -2.5431 O.3     1  UNL1       -0.3752
      8 C           8.6616    1.9352   -2.3443 C.3     1  UNL1        0.0711
      9 C           9.4216    2.7812   -3.3528 C.3     1  UNL1        0.0711
     10 O          10.8177    2.6144   -3.1540 O.3     1  UNL1       -0.3752
     11 C          11.5277    3.4047   -4.0961 C.3     1  UNL1        0.0711
     12 C          13.0221    3.2262   -3.8834 C.3     1  UNL1        0.0711
     13 O          13.7321    4.0166   -4.8255 O.3     1  UNL1       -0.3760
     14 C          15.1282    3.8498   -4.6267 C.3     1  UNL1        0.0633
     15 C          15.8882    4.6958   -5.6352 C.3     1  UNL1        0.0351
     16 N          17.3335    4.5232   -5.4294 N.am    1  UNL1       -0.3112
     17 C          18.2887    5.2412   -6.2854 C.2     1  UNL1        0.2386
     18 O          17.8651    6.0113   -7.2034 O.2     1  UNL1       -0.2733
     19 C          19.7831    5.0627   -6.0726 C.3     1  UNL1        0.1202
     20 O          20.4931    5.8531   -7.0148 O.3     1  UNL1       -0.3858
     21 H           2.7110   -0.5539    0.6229 H       1  UNL1        0.1051
     22 H           2.6965    1.8964   -0.9387 H       1  UNL1        0.0636
     23 H           2.6965    0.5578   -2.0617 H       1  UNL1        0.0636
     24 H           4.8026    2.5200   -1.6821 H       1  UNL1        0.0583
     25 H           4.8026    1.1814   -2.8051 H       1  UNL1        0.0583
     26 H           6.8140    0.2817   -1.7325 H       1  UNL1        0.0583
     27 H           6.8140    1.6203   -0.6096 H       1  UNL1        0.0583
     28 H           8.9201    0.9052   -2.4759 H       1  UNL1        0.0583
     29 H           8.9201    2.2439   -1.3529 H       1  UNL1        0.0583
     30 H           9.1631    3.8111   -3.2212 H       1  UNL1        0.0583
     31 H           9.1631    2.4724   -4.3441 H       1  UNL1        0.0583
     32 H          11.2692    4.4347   -3.9645 H       1  UNL1        0.0583
     33 H          11.2692    3.0960   -5.0875 H       1  UNL1        0.0583
     34 H          13.2806    2.1963   -4.0150 H       1  UNL1        0.0583
     35 H          13.2806    3.5350   -2.8920 H       1  UNL1        0.0583
     36 H          15.3867    2.8199   -4.7583 H       1  UNL1        0.0575
     37 H          15.3867    4.1585   -3.6354 H       1  UNL1        0.0575
     38 H          15.6297    5.7257   -5.5036 H       1  UNL1        0.0484
     39 H          15.6297    4.3871   -6.6266 H       1  UNL1        0.0484
     40 H          17.6616    3.9266   -4.7183 H       1  UNL1        0.1488
     41 H          20.0416    4.0328   -6.2043 H       1  UNL1        0.0654
     42 H          20.0416    5.3715   -5.0813 H       1  UNL1        0.0654
     43 H          20.2588    5.5732   -7.9135 H       1  UNL1        0.2100
@<TRIPOS>BOND
     1     1     2    2
     2     2     3    1
     3     3     4    1
     4     4     5    1
     5     5     6    1
     6     6     7    1
     7     7     8    1
     8     8     9    1
     9     9    10    1
    10    10    11    1
    11    11    12    1
    12    12    13    1
    13    13    14    1
    14    14    15    1
    15    15    16    1
    16    16    17   am
    17    17    18    2
    18    17    19    1
    19    19    20    1
    20     2    21    1
    21     3    22    1
    22     3    23    1
    23     5    24    1
    24     5    25    1
    25     6    26    1
    26     6    27    1
    27     8    28    1
    28     8    29    1
    29     9    30    1
    30     9    31    1
    31    11    32    1
    32    11    33    1
    33    12    34    1
    34    12    35    1
    35    14    36    1
    36    14    37    1
    37    15    38    1
    38    15    39    1
    39    16    40    1
    40    19    41    1
    41    19    42    1
    42    20    43    1
