@<TRIPOS>MOLECULE
*****
 22 21 0 0 0
SMALL
GASTEIGER

@<TRIPOS>ATOM
      1 C           0.9288    0.0002   -0.0702 C.3     1  UNL1       -0.0653
      2 C           2.4488    0.0002   -0.0702 C.3     1  UNL1       -0.0559
      3 C           2.9554   -1.1028   -0.9852 C.3     1  UNL1       -0.0533
      4 C           4.4754   -1.1028   -0.9852 C.3     1  UNL1       -0.0519
      5 C           4.9821   -2.2057   -1.9002 C.3     1  UNL1       -0.0406
      6 C           6.5021   -2.2057   -1.9002 C.3     1  UNL1       -0.0069
      7 N           6.9921   -3.2724   -2.7851 N.3     1  UNL1       -0.3300
      8 H           0.5721    0.7766    0.5739 H       1  UNL1        0.0230
      9 H           0.5721   -0.9459    0.2802 H       1  UNL1        0.0230
     10 H           0.5721    0.1698   -1.0646 H       1  UNL1        0.0230
     11 H           2.8054   -0.1695    0.9243 H       1  UNL1        0.0263
     12 H           2.8054    0.9462   -0.4205 H       1  UNL1        0.0263
     13 H           2.5988   -0.9332   -1.9796 H       1  UNL1        0.0265
     14 H           2.5988   -2.0488   -0.6349 H       1  UNL1        0.0265
     15 H           4.8321   -1.2724    0.0093 H       1  UNL1        0.0266
     16 H           4.8321   -0.1568   -1.3355 H       1  UNL1        0.0266
     17 H           4.6254   -2.0361   -2.8946 H       1  UNL1        0.0277
     18 H           4.6254   -3.1517   -1.5499 H       1  UNL1        0.0277
     19 H           6.8588   -2.3753   -0.9057 H       1  UNL1        0.0422
     20 H           6.8588   -1.2597   -2.2505 H       1  UNL1        0.0422
     21 H           6.6521   -4.1742   -2.4511 H       1  UNL1        0.1182
     22 H           8.0121   -3.2724   -2.7851 H       1  UNL1        0.1182
@<TRIPOS>BOND
     1     1     2    1
     2     2     3    1
     3     3     4    1
     4     4     5    1
     5     5     6    1
     6     6     7    1
     7     1     8    1
     8     1     9    1
     9     1    10    1
    10     2    11    1
    11     2    12    1
    12     3    13    1
    13     3    14    1
    14     4    15    1
    15     4    16    1
    16     5    17    1
    17     5    18    1
    18     6    19    1
    19     6    20    1
    20     7    21    1
    21     7    22    1
