@<TRIPOS>MOLECULE
*****
 70 72 0 0 0
SMALL
GASTEIGER

@<TRIPOS>ATOM
      1 C           0.9879    0.0910   -0.0396 C.3     1  UNL1       -0.0652
      2 C           2.5079    0.0910   -0.0396 C.3     1  UNL1       -0.0545
      3 C           3.0146    1.3544    0.6369 C.3     1  UNL1       -0.0373
      4 C           4.5346    1.3544    0.6369 C.3     1  UNL1        0.0165
      5 N           5.0246    2.5762    1.2911 N.am    1  UNL1       -0.2811
      6 C           4.0693    3.5612    1.8185 C.3     1  UNL1        0.0412
      7 C           2.6508    3.0797    1.5607 C.ar    1  UNL1       -0.0301
      8 C           1.5306    3.8777    1.9880 C.ar    1  UNL1       -0.0571
      9 C           0.1866    3.4215    1.7437 C.ar    1  UNL1       -0.0615
     10 C          -0.9335    4.2195    2.1710 C.ar    1  UNL1       -0.0617
     11 C          -2.2776    3.7633    1.9268 C.ar    1  UNL1       -0.0615
     12 C           2.4270    1.8255    0.8891 C.ar    1  UNL1       -0.0571
     13 C           6.4698    2.8130    1.4179 C.2     1  UNL1        0.3067
     14 O           7.2957    1.9614    0.9619 O.2     1  UNL1       -0.2523
     15 N           6.9598    4.0348    2.0721 N.am    1  UNL1       -0.2693
     16 C           8.4050    4.2716    2.1989 C.ar    1  UNL1        0.0350
     17 C           8.8851    5.4686    2.8399 C.ar    1  UNL1       -0.0370
     18 C          10.3011    5.7006    2.9641 C.ar    1  UNL1       -0.0182
     19 C          10.7811    6.8977    3.6051 C.ar    1  UNL1        0.1206
     20 O           9.8584    7.8492    4.1146 O.3     1  UNL1       -0.4920
     21 C           8.4623    7.6204    3.9921 C.3     1  UNL1        0.0896
     22 C           7.7023    8.7809    4.6135 C.3     1  UNL1       -0.0186
     23 C           6.2079    8.5360    4.4823 C.3     1  UNL1       -0.0483
     24 C           5.4479    9.6965    5.1037 C.3     1  UNL1       -0.0332
     25 C           3.9535    9.4516    4.9726 C.3     1  UNL1        0.0432
     26 N           3.2185   10.5739    5.5736 N.ar    1  UNL1       -0.2514
     27 C           1.8256   10.5739    5.5736 C.ar    1  UNL1        0.0499
     28 C           1.1055   11.6734    6.1623 C.ar    1  UNL1        0.0963
     29 C           1.8655   12.8339    6.7837 C.3     1  UNL1        0.0393
     30 N           3.3108   12.5971    6.6569 N.3     1  UNL1       -0.3248
     31 N          -0.2873   11.6734    6.1623 N.ar    1  UNL1       -0.1332
     32 N           3.8912   11.6011    6.1236 N.ar    1  UNL1       -0.0654
     33 C          12.1971    7.1297    3.7293 C.ar    1  UNL1       -0.0182
     34 C           9.3409    3.3066    1.6822 C.ar    1  UNL1       -0.0370
     35 H           0.6312   -0.7983   -0.5158 H       1  UNL1        0.0230
     36 H           0.6312    0.9481   -0.5717 H       1  UNL1        0.0230
     37 H           0.6312    0.1233    0.9687 H       1  UNL1        0.0230
     38 H           2.8646    0.0588   -1.0479 H       1  UNL1        0.0263
     39 H           2.8646   -0.7660    0.4925 H       1  UNL1        0.0263
     40 H           2.6579    1.3866    1.6452 H       1  UNL1        0.0280
     41 H           2.6579    2.2115    0.1048 H       1  UNL1        0.0280
     42 H           4.8912    1.3221   -0.3714 H       1  UNL1        0.0465
     43 H           4.8912    0.4973    1.1690 H       1  UNL1        0.0465
     44 H           4.2209    4.5015    1.3310 H       1  UNL1        0.0514
     45 H           4.2209    3.6767    2.8714 H       1  UNL1        0.0514
     46 H           1.6911    4.7764    2.4692 H       1  UNL1        0.0621
     47 H           0.0262    2.5228    1.2625 H       1  UNL1        0.0618
     48 H          -0.7731    5.1183    2.6523 H       1  UNL1        0.0618
     49 H          -3.3089    3.7950    1.9437 H       1  UNL1        0.0618
     50 H           2.9116    1.0222    0.4590 H       1  UNL1        0.0621
     51 H           6.3200    4.6945    2.4254 H       1  UNL1        0.1564
     52 H           8.2145    6.1601    3.2102 H       1  UNL1        0.0637
     53 H          10.9717    5.0091    2.5938 H       1  UNL1        0.0655
     54 H           8.2038    6.7134    4.4974 H       1  UNL1        0.0696
     55 H           8.2038    7.5382    2.9570 H       1  UNL1        0.0696
     56 H           7.9608    9.6879    4.1081 H       1  UNL1        0.0298
     57 H           7.9608    8.8631    5.6485 H       1  UNL1        0.0298
     58 H           5.9494    7.6290    4.9877 H       1  UNL1        0.0267
     59 H           5.9494    8.4538    3.4473 H       1  UNL1        0.0267
     60 H           5.7063   10.6035    4.5984 H       1  UNL1        0.0283
     61 H           5.7064    9.7787    6.1388 H       1  UNL1        0.0283
     62 H           3.6950    8.5446    5.4779 H       1  UNL1        0.0509
     63 H           3.6950    9.3694    3.9376 H       1  UNL1        0.0509
     64 H           1.3096    9.7860    5.1517 H       1  UNL1        0.0845
     65 H           1.6070   12.9161    7.8187 H       1  UNL1        0.0488
     66 H           1.6070   13.7410    6.2784 H       1  UNL1        0.0488
     67 H           3.5572   11.7325    7.1386 H       1  UNL1        0.1186
     68 H           3.8208   13.3758    7.0739 H       1  UNL1        0.1186
     69 H          13.0568    7.6329    3.9988 H       1  UNL1        0.0655
     70 H           9.4054    2.3986    1.1960 H       1  UNL1        0.0637
@<TRIPOS>BOND
     1     1     2    1
     2     2     3    1
     3     3     4    1
     4     4     5    1
     5     5     6    1
     6     6     7    1
     7     7     8   ar
     8     8     9   ar
     9     9    10   ar
    10    10    11   ar
    11    11    12   ar
    12     7    12   ar
    13     5    13   am
    14    13    14    2
    15    13    15   am
    16    15    16    1
    17    16    17   ar
    18    17    18   ar
    19    18    19   ar
    20    19    20    1
    21    20    21    1
    22    21    22    1
    23    22    23    1
    24    23    24    1
    25    24    25    1
    26    25    26    1
    27    26    27   ar
    28    27    28   ar
    29    28    29    1
    30    29    30    1
    31    28    31   ar
    32    31    32   ar
    33    26    32   ar
    34    19    33   ar
    35    33    34   ar
    36    16    34   ar
    37     1    35    1
    38     1    36    1
    39     1    37    1
    40     2    38    1
    41     2    39    1
    42     3    40    1
    43     3    41    1
    44     4    42    1
    45     4    43    1
    46     6    44    1
    47     6    45    1
    48     8    46    1
    49     9    47    1
    50    10    48    1
    51    11    49    1
    52    12    50    1
    53    15    51    1
    54    17    52    1
    55    18    53    1
    56    21    54    1
    57    21    55    1
    58    22    56    1
    59    22    57    1
    60    23    58    1
    61    23    59    1
    62    24    60    1
    63    24    61    1
    64    25    62    1
    65    25    63    1
    66    27    64    1
    67    29    65    1
    68    29    66    1
    69    30    67    1
    70    30    68    1
    71    33    69    1
    72    34    70    1
