@<TRIPOS>MOLECULE
*****
 22 21 0 0 0
SMALL
GASTEIGER

@<TRIPOS>ATOM
      1 C           1.0526    0.0777   -0.0347 C.3     1  UNL1       -0.0653
      2 C           2.5726    0.0777   -0.0347 C.3     1  UNL1       -0.0559
      3 C           3.0793   -0.7399   -1.2116 C.3     1  UNL1       -0.0533
      4 C           4.5993   -0.7399   -1.2116 C.3     1  UNL1       -0.0527
      5 C           5.1059   -1.5576   -2.3886 C.3     1  UNL1       -0.0466
      6 C           6.6259   -1.5576   -2.3886 C.3     1  UNL1        0.0028
      7 C           7.1326   -2.3752   -3.5655 C.2     1  UNL1        0.1203
      8 O           8.3821   -2.5077   -3.7563 O.2     1  UNL1       -0.3010
      9 H           0.6959    0.6532    0.7938 H       1  UNL1        0.0230
     10 H           0.6959   -0.9276    0.0495 H       1  UNL1        0.0230
     11 H           0.6959    0.5074   -0.9474 H       1  UNL1        0.0230
     12 H           2.9293   -0.3521    0.8780 H       1  UNL1        0.0263
     13 H           2.9293    1.0829   -0.1189 H       1  UNL1        0.0263
     14 H           2.7226   -0.3102   -2.1243 H       1  UNL1        0.0265
     15 H           2.7226   -1.7452   -1.1274 H       1  UNL1        0.0265
     16 H           4.9559   -1.1697   -0.2989 H       1  UNL1        0.0265
     17 H           4.9559    0.2653   -1.2958 H       1  UNL1        0.0265
     18 H           4.7493   -1.1278   -3.3013 H       1  UNL1        0.0269
     19 H           4.7493   -2.5628   -2.3044 H       1  UNL1        0.0269
     20 H           6.9826   -1.9873   -1.4759 H       1  UNL1        0.0339
     21 H           6.9826   -0.5523   -2.4728 H       1  UNL1        0.0339
     22 H           6.4620   -2.8227   -4.2097 H       1  UNL1        0.1026
@<TRIPOS>BOND
     1     1     2    1
     2     2     3    1
     3     3     4    1
     4     4     5    1
     5     5     6    1
     6     6     7    1
     7     7     8    2
     8     1     9    1
     9     1    10    1
    10     1    11    1
    11     2    12    1
    12     2    13    1
    13     3    14    1
    14     3    15    1
    15     4    16    1
    16     4    17    1
    17     5    18    1
    18     5    19    1
    19     6    20    1
    20     6    21    1
    21     7    22    1
