@<TRIPOS>MOLECULE
*****
 33 33 0 0 0
SMALL
GASTEIGER

@<TRIPOS>ATOM
      1 N           1.0526    0.0689   -0.0498 N.3     1  UNL1       -0.3279
      2 C           2.5226    0.0689   -0.0498 C.3     1  UNL1        0.0166
      3 C           3.0293    1.0588   -1.0861 C.3     1  UNL1        0.0600
      4 O           4.4493    1.0588   -1.0861 O.3     1  UNL1       -0.3767
      5 C           4.9226    1.9835   -2.0543 C.3     1  UNL1        0.0673
      6 C           6.4426    1.9835   -2.0543 C.3     1  UNL1        0.0665
      7 N           6.9326    2.9407   -3.0565 N.ar    1  UNL1       -0.2492
      8 C           8.3020    3.1165   -3.2405 C.ar    1  UNL1        0.0487
      9 C           8.7820    4.0544   -4.2224 C.ar    1  UNL1        0.0829
     10 C           7.7943    4.8524   -5.0579 C.3     1  UNL1       -0.0051
     11 C           6.3758    4.4751   -4.6629 C.3     1  UNL1       -0.0242
     12 C           5.3880    5.2731   -5.4984 C.3     1  UNL1        0.0446
     13 O           4.0629    4.9207   -5.1294 O.3     1  UNL1       -0.3950
     14 N          10.1514    4.2302   -4.4065 N.ar    1  UNL1       -0.1345
     15 N           6.0583    3.6471   -3.7960 N.ar    1  UNL1       -0.0654
     16 H           0.7126   -0.5953    0.6456 H       1  UNL1        0.1183
     17 H           0.7126   -0.2012   -0.9728 H       1  UNL1        0.1183
     18 H           2.8793   -0.9112   -0.2885 H       1  UNL1        0.0444
     19 H           2.8793    0.3523    0.9184 H       1  UNL1        0.0444
     20 H           2.6726    2.0389   -0.8474 H       1  UNL1        0.0572
     21 H           2.6726    0.7754   -2.0543 H       1  UNL1        0.0572
     22 H           4.5659    2.9636   -1.8156 H       1  UNL1        0.0578
     23 H           4.5659    1.7001   -3.0224 H       1  UNL1        0.0578
     24 H           6.7993    1.0033   -2.2929 H       1  UNL1        0.0532
     25 H           6.7993    2.2668   -1.0861 H       1  UNL1        0.0532
     26 H           8.9726    2.5747   -2.6733 H       1  UNL1        0.0845
     27 H           7.9459    4.6342   -6.0944 H       1  UNL1        0.0330
     28 H           7.9459    5.8978   -4.8875 H       1  UNL1        0.0330
     29 H           6.2242    4.6933   -3.6264 H       1  UNL1        0.0291
     30 H           6.2242    3.4297   -4.8333 H       1  UNL1        0.0291
     31 H           5.5396    5.0550   -6.5349 H       1  UNL1        0.0557
     32 H           5.5396    6.3185   -5.3280 H       1  UNL1        0.0557
     33 H           3.9254    3.9730   -5.2839 H       1  UNL1        0.2094
@<TRIPOS>BOND
     1     1     2    1
     2     2     3    1
     3     3     4    1
     4     4     5    1
     5     5     6    1
     6     6     7    1
     7     7     8   ar
     8     8     9   ar
     9     9    10    1
    10    10    11    1
    11    11    12    1
    12    12    13    1
    13     9    14   ar
    14    14    15   ar
    15     7    15   ar
    16     1    16    1
    17     1    17    1
    18     2    18    1
    19     2    19    1
    20     3    20    1
    21     3    21    1
    22     5    22    1
    23     5    23    1
    24     6    24    1
    25     6    25    1
    26     8    26    1
    27    10    27    1
    28    10    28    1
    29    11    29    1
    30    11    30    1
    31    12    31    1
    32    12    32    1
    33    13    33    1
