@<TRIPOS>MOLECULE
*****
 17 16 0 0 0
SMALL
GASTEIGER

@<TRIPOS>ATOM
      1 C           1.0022    0.0777    0.0629 C.3     1  UNL1       -0.0416
      2 C           2.5222    0.0777    0.0629 C.3     1  UNL1        0.0449
      3 O           2.9956    1.0710    0.9606 O.3     1  UNL1       -0.3796
      4 C           4.4156    1.0710    0.9606 C.3     1  UNL1        0.0540
      5 C           4.9222    2.1342    1.9214 C.3     1  UNL1        0.0262
      6 C           6.4422    2.1342    1.9214 C.2     1  UNL1        0.1225
      7 O           7.0777    2.9508    2.6593 O.2     1  UNL1       -0.3010
      8 H           0.6456   -0.6708   -0.6134 H       1  UNL1        0.0252
      9 H           0.6456    1.0377   -0.2471 H       1  UNL1        0.0252
     10 H           0.6456   -0.1338    1.0493 H       1  UNL1        0.0252
     11 H           2.8789    0.2892   -0.9234 H       1  UNL1        0.0557
     12 H           2.8789   -0.8823    0.3730 H       1  UNL1        0.0557
     13 H           4.7722    1.2825   -0.0258 H       1  UNL1        0.0564
     14 H           4.7722    0.1110    1.2706 H       1  UNL1        0.0564
     15 H           4.5656    1.9227    2.9078 H       1  UNL1        0.0361
     16 H           4.5655    3.0942    1.6114 H       1  UNL1        0.0361
     17 H           6.9582    1.4711    1.3222 H       1  UNL1        0.1027
@<TRIPOS>BOND
     1     1     2    1
     2     2     3    1
     3     3     4    1
     4     4     5    1
     5     5     6    1
     6     6     7    2
     7     1     8    1
     8     1     9    1
     9     1    10    1
    10     2    11    1
    11     2    12    1
    12     4    13    1
    13     4    14    1
    14     5    15    1
    15     5    16    1
    16     6    17    1
