@<TRIPOS>MOLECULE
*****
 14 13 0 0 0
SMALL
GASTEIGER

@<TRIPOS>ATOM
      1 C           1.0374   -0.0858    0.0352 C.3     1  UNL1        0.0001
      2 N           2.5074   -0.0858    0.0352 N.am    1  UNL1       -0.3180
      3 C           3.2424    0.8710    0.8749 C.2     1  UNL1        0.2197
      4 O           2.6069    1.6983    1.6009 O.2     1  UNL1       -0.2754
      5 C           4.7624    0.8710    0.8749 C.3     1  UNL1        0.0793
      6 C           5.2690    1.9481    1.8201 C.2     1  UNL1        0.1290
      7 O           6.5185    2.1227    1.9733 O.2     1  UNL1       -0.3005
      8 H           0.6807   -0.8441   -0.6302 H       1  UNL1        0.0426
      9 H           0.6807    0.8695   -0.2888 H       1  UNL1        0.0426
     10 H           0.6807   -0.2830    1.0245 H       1  UNL1        0.0426
     11 H           2.9996   -0.7267   -0.5272 H       1  UNL1        0.1484
     12 H           5.1190    1.0682   -0.1145 H       1  UNL1        0.0433
     13 H           5.1190   -0.0844    1.1988 H       1  UNL1        0.0433
     14 H           4.5984    2.5377    2.3375 H       1  UNL1        0.1031
@<TRIPOS>BOND
     1     1     2    1
     2     2     3   am
     3     3     4    2
     4     3     5    1
     5     5     6    1
     6     6     7    2
     7     1     8    1
     8     1     9    1
     9     1    10    1
    10     2    11    1
    11     5    12    1
    12     5    13    1
    13     6    14    1
