@<TRIPOS>MOLECULE
*****
 25 24 0 0 0
SMALL
GASTEIGER

@<TRIPOS>ATOM
      1 C           0.9030   -0.0213   -0.0116 C.3     1  UNL1       -0.0652
      2 C           2.4230   -0.0213   -0.0116 C.3     1  UNL1       -0.0538
      3 C           2.9297   -0.7539   -1.2433 C.3     1  UNL1       -0.0297
      4 C           4.4497   -0.7539   -1.2433 C.3     1  UNL1        0.0477
      5 O           4.9230   -1.4383   -2.3939 O.3     1  UNL1       -0.3797
      6 C           6.3430   -1.4383   -2.3939 C.3     1  UNL1        0.0497
      7 C           6.8496   -2.1708   -3.6256 C.3     1  UNL1       -0.0062
      8 C           8.3696   -2.1708   -3.6256 C.3     1  UNL1        0.0463
      9 O           8.8430   -2.8552   -4.7763 O.3     1  UNL1       -0.3949
     10 H           0.5463    0.4944    0.8554 H       1  UNL1        0.0230
     11 H           0.5463   -1.0300    0.0015 H       1  UNL1        0.0230
     12 H           0.5463    0.4717   -0.8917 H       1  UNL1        0.0230
     13 H           2.7797   -0.5144    0.8685 H       1  UNL1        0.0263
     14 H           2.7797    0.9874   -0.0247 H       1  UNL1        0.0263
     15 H           2.5730   -0.2609   -2.1234 H       1  UNL1        0.0287
     16 H           2.5730   -1.7626   -1.2302 H       1  UNL1        0.0287
     17 H           4.8063   -1.2469   -0.3632 H       1  UNL1        0.0560
     18 H           4.8063    0.2548   -1.2564 H       1  UNL1        0.0560
     19 H           6.6996   -1.9313   -1.5138 H       1  UNL1        0.0560
     20 H           6.6996   -0.4295   -2.4070 H       1  UNL1        0.0560
     21 H           6.4930   -1.6778   -4.5057 H       1  UNL1        0.0309
     22 H           6.4930   -3.1796   -3.6125 H       1  UNL1        0.0309
     23 H           8.7263   -2.6639   -2.7455 H       1  UNL1        0.0558
     24 H           8.7263   -1.1621   -3.6387 H       1  UNL1        0.0558
     25 H           8.5196   -3.7697   -4.7644 H       1  UNL1        0.2094
@<TRIPOS>BOND
     1     1     2    1
     2     2     3    1
     3     3     4    1
     4     4     5    1
     5     5     6    1
     6     6     7    1
     7     7     8    1
     8     8     9    1
     9     1    10    1
    10     1    11    1
    11     1    12    1
    12     2    13    1
    13     2    14    1
    14     3    15    1
    15     3    16    1
    16     4    17    1
    17     4    18    1
    18     6    19    1
    19     6    20    1
    20     7    21    1
    21     7    22    1
    22     8    23    1
    23     8    24    1
    24     9    25    1
