@<TRIPOS>MOLECULE
*****
 26 25 0 0 0
SMALL
GASTEIGER

@<TRIPOS>ATOM
      1 C           1.0525   -0.0822   -0.0221 C.3     1  UNL1        0.0364
      2 O           2.4725   -0.0822   -0.0221 O.3     1  UNL1       -0.3829
      3 C           2.9458   -0.9754    0.9752 C.3     1  UNL1        0.0494
      4 C           4.4658   -0.9754    0.9752 C.3     1  UNL1       -0.0059
      5 C           4.9725   -1.9314    2.0427 C.3     1  UNL1        0.0497
      6 O           6.3925   -1.9314    2.0427 O.3     1  UNL1       -0.3796
      7 C           6.8658   -2.8246    3.0400 C.3     1  UNL1        0.0497
      8 C           8.3858   -2.8246    3.0400 C.3     1  UNL1       -0.0062
      9 C           8.8925   -3.7807    4.1075 C.3     1  UNL1        0.0463
     10 O          10.3125   -3.7807    4.1075 O.3     1  UNL1       -0.3949
     11 H           0.6958    0.5908   -0.7736 H       1  UNL1        0.0523
     12 H           0.6958    0.2321    0.9365 H       1  UNL1        0.0523
     13 H           0.6958   -1.0695   -0.2292 H       1  UNL1        0.0523
     14 H           2.5892   -1.9627    0.7680 H       1  UNL1        0.0560
     15 H           2.5892   -0.6611    1.9338 H       1  UNL1        0.0560
     16 H           4.8225    0.0120    1.1823 H       1  UNL1        0.0310
     17 H           4.8225   -1.2896    0.0166 H       1  UNL1        0.0310
     18 H           4.6158   -2.9188    1.8356 H       1  UNL1        0.0560
     19 H           4.6158   -1.6172    3.0013 H       1  UNL1        0.0560
     20 H           6.5091   -3.8119    2.8329 H       1  UNL1        0.0560
     21 H           6.5091   -2.5103    3.9986 H       1  UNL1        0.0560
     22 H           8.7425   -1.8373    3.2471 H       1  UNL1        0.0309
     23 H           8.7425   -3.1389    2.0814 H       1  UNL1        0.0309
     24 H           8.5358   -4.7680    3.9004 H       1  UNL1        0.0558
     25 H           8.5358   -3.4664    5.0661 H       1  UNL1        0.0558
     26 H          10.6358   -4.0656    3.2385 H       1  UNL1        0.2094
@<TRIPOS>BOND
     1     1     2    1
     2     2     3    1
     3     3     4    1
     4     4     5    1
     5     5     6    1
     6     6     7    1
     7     7     8    1
     8     8     9    1
     9     9    10    1
    10     1    11    1
    11     1    12    1
    12     1    13    1
    13     3    14    1
    14     3    15    1
    15     4    16    1
    16     4    17    1
    17     5    18    1
    18     5    19    1
    19     7    20    1
    20     7    21    1
    21     8    22    1
    22     8    23    1
    23     9    24    1
    24     9    25    1
    25    10    26    1
