@<TRIPOS>MOLECULE
*****
 19 19 0 0 0
SMALL
GASTEIGER

@<TRIPOS>ATOM
      1 C           0.9294   -0.0352    0.0614 C.3     1  UNL1       -0.0127
      2 N           2.3994   -0.0352    0.0614 N.3     1  UNL1       -0.3029
      3 C           2.8894    1.0605   -0.7873 C.3     1  UNL1        0.0112
      4 C           4.4094    1.0605   -0.7873 C.3     1  UNL1        0.0087
      5 N           4.8994    2.1561   -1.6361 N.3     1  UNL1       -0.3136
      6 C           6.3694    2.1561   -1.6361 C.3     1  UNL1        0.0087
      7 C           2.8894   -1.3180   -0.4631 C.3     1  UNL1        0.0112
      8 H           0.5727    0.8986    0.4432 H       1  UNL1        0.0391
      9 H           0.5727   -0.8327    0.6792 H       1  UNL1        0.0391
     10 H           0.5727   -0.1715   -0.9381 H       1  UNL1        0.0391
     11 H           2.5327    1.9942   -0.4056 H       1  UNL1        0.0439
     12 H           2.5327    0.9242   -1.7869 H       1  UNL1        0.0439
     13 H           4.7660    0.1267   -1.1691 H       1  UNL1        0.0437
     14 H           4.7660    1.1967    0.2122 H       1  UNL1        0.0437
     15 H           4.5594    3.0462   -1.2721 H       1  UNL1        0.1220
     16 H           6.9370    2.6666   -0.8863 H       1  UNL1        0.0437
     17 H           7.1944    2.3058   -2.3007 H       1  UNL1        0.0437
     18 H           3.1610   -2.0721    0.2458 H       1  UNL1        0.0439
     19 H           2.3928   -2.0154   -1.1050 H       1  UNL1        0.0439
@<TRIPOS>BOND
     1     1     2    1
     2     2     3    1
     3     3     4    1
     4     4     5    1
     5     5     6    1
     6     6     7    1
     7     2     7    1
     8     1     8    1
     9     1     9    1
    10     1    10    1
    11     3    11    1
    12     3    12    1
    13     4    13    1
    14     4    14    1
    15     5    15    1
    16     6    16    1
    17     6    17    1
    18     7    18    1
    19     7    19    1
