@<TRIPOS>MOLECULE
*****
 36 35 0 0 0
SMALL
GASTEIGER

@<TRIPOS>ATOM
      1 O           0.9184   -0.0463   -0.0347 O.2     1  UNL1       -0.2986
      2 C           2.1893   -0.0463   -0.0347 C.2     1  UNL1        0.1458
      3 C           2.9493   -0.8423   -1.0831 C.3     1  UNL1        0.1028
      4 O           4.3454   -0.6854   -0.8764 O.3     1  UNL1       -0.3703
      5 C           5.0554   -1.4290   -1.8559 C.3     1  UNL1        0.0715
      6 C           6.5498   -1.2610   -1.6346 C.3     1  UNL1        0.0711
      7 O           7.2598   -2.0047   -2.6141 O.3     1  UNL1       -0.3752
      8 C           8.6559   -1.8477   -2.4074 C.3     1  UNL1        0.0711
      9 C           9.4159   -2.6437   -3.4559 C.3     1  UNL1        0.0711
     10 O          10.8120   -2.4868   -3.2492 O.3     1  UNL1       -0.3752
     11 C          11.5220   -3.2305   -4.2286 C.3     1  UNL1        0.0711
     12 C          13.0164   -3.0625   -4.0074 C.3     1  UNL1        0.0711
     13 O          13.7264   -3.8061   -4.9869 O.3     1  UNL1       -0.3752
     14 C          15.1225   -3.6492   -4.7802 C.3     1  UNL1        0.0708
     15 C          15.8825   -4.4452   -5.8286 C.3     1  UNL1        0.0676
     16 O          17.2786   -4.2883   -5.6220 O.3     1  UNL1       -0.3927
     17 H           2.7053    0.4942    0.6772 H       1  UNL1        0.1051
     18 H           2.6908   -0.4857   -2.0583 H       1  UNL1        0.0636
     19 H           2.6908   -1.8774   -1.0017 H       1  UNL1        0.0636
     20 H           4.7969   -1.0724   -2.8310 H       1  UNL1        0.0583
     21 H           4.7969   -2.4641   -1.7745 H       1  UNL1        0.0583
     22 H           6.8083   -1.6176   -0.6595 H       1  UNL1        0.0583
     23 H           6.8083   -0.2259   -1.7161 H       1  UNL1        0.0583
     24 H           8.9144   -2.2043   -1.4323 H       1  UNL1        0.0583
     25 H           8.9144   -0.8126   -2.4888 H       1  UNL1        0.0583
     26 H           9.1574   -2.2872   -4.4310 H       1  UNL1        0.0583
     27 H           9.1574   -3.6789   -3.3744 H       1  UNL1        0.0583
     28 H          11.2635   -2.8739   -5.2038 H       1  UNL1        0.0583
     29 H          11.2635   -4.2656   -4.1472 H       1  UNL1        0.0583
     30 H          13.2749   -3.4190   -3.0322 H       1  UNL1        0.0583
     31 H          13.2749   -2.0274   -4.0888 H       1  UNL1        0.0583
     32 H          15.3810   -4.0058   -3.8050 H       1  UNL1        0.0583
     33 H          15.3810   -2.6141   -4.8616 H       1  UNL1        0.0583
     34 H          15.6240   -4.0887   -6.8038 H       1  UNL1        0.0580
     35 H          15.6240   -5.4803   -5.7472 H       1  UNL1        0.0580
     36 H          17.5129   -3.3499   -5.6958 H       1  UNL1        0.2095
@<TRIPOS>BOND
     1     1     2    2
     2     2     3    1
     3     3     4    1
     4     4     5    1
     5     5     6    1
     6     6     7    1
     7     7     8    1
     8     8     9    1
     9     9    10    1
    10    10    11    1
    11    11    12    1
    12    12    13    1
    13    13    14    1
    14    14    15    1
    15    15    16    1
    16     2    17    1
    17     3    18    1
    18     3    19    1
    19     5    20    1
    20     5    21    1
    21     6    22    1
    22     6    23    1
    23     8    24    1
    24     8    25    1
    25     9    26    1
    26     9    27    1
    27    11    28    1
    28    11    29    1
    29    12    30    1
    30    12    31    1
    31    14    32    1
    32    14    33    1
    33    15    34    1
    34    15    35    1
    35    16    36    1
