@<TRIPOS>MOLECULE
*****
 19 19 0 0 0
SMALL
GASTEIGER

@<TRIPOS>ATOM
      1 C           1.0954   -0.0298    0.0044 C.3     1  UNL1       -0.0127
      2 N           2.5654   -0.0298    0.0044 N.3     1  UNL1       -0.3029
      3 C           3.0554    1.1851    0.6714 C.3     1  UNL1        0.0112
      4 C           4.5754    1.1851    0.6714 C.3     1  UNL1        0.0087
      5 N           5.0654    2.4000    1.3383 N.3     1  UNL1       -0.3136
      6 C           6.5354    2.4000    1.3383 C.3     1  UNL1        0.0087
      7 C           3.0554   -0.0596   -1.3812 C.3     1  UNL1        0.0112
      8 H           0.7387   -0.0080    1.0130 H       1  UNL1        0.0391
      9 H           0.7387   -0.9141   -0.4810 H       1  UNL1        0.0391
     10 H           0.7387    0.8328   -0.5187 H       1  UNL1        0.0391
     11 H           2.6987    1.2069    1.6799 H       1  UNL1        0.0439
     12 H           2.6987    2.0477    0.1483 H       1  UNL1        0.0439
     13 H           4.9320    1.1634   -0.3372 H       1  UNL1        0.0437
     14 H           4.9320    0.3226    1.1945 H       1  UNL1        0.0437
     15 H           4.7254    2.4208    2.2998 H       1  UNL1        0.1220
     16 H           7.1030    1.9157    2.1052 H       1  UNL1        0.0437
     17 H           7.3604    3.0693    1.2109 H       1  UNL1        0.0437
     18 H           3.3270   -1.0102   -1.7905 H       1  UNL1        0.0439
     19 H           2.5588    0.2514   -2.2765 H       1  UNL1        0.0439
@<TRIPOS>BOND
     1     1     2    1
     2     2     3    1
     3     3     4    1
     4     4     5    1
     5     5     6    1
     6     6     7    1
     7     2     7    1
     8     1     8    1
     9     1     9    1
    10     1    10    1
    11     3    11    1
    12     3    12    1
    13     4    13    1
    14     4    14    1
    15     5    15    1
    16     6    16    1
    17     6    17    1
    18     7    18    1
    19     7    19    1
