@<TRIPOS>MOLECULE
*****
 35 35 0 0 0
SMALL
GASTEIGER

@<TRIPOS>ATOM
      1 C           0.9492    0.0338    0.0792 C.3     1  UNL1       -0.0632
      2 C           2.4692    0.0338    0.0792 C.3     1  UNL1       -0.0323
      3 C           2.9759   -1.0004    1.0712 C.3     1  UNL1        0.0475
      4 O           4.3959   -1.0004    1.0712 O.3     1  UNL1       -0.3775
      5 C           4.8692   -1.9666    1.9979 C.3     1  UNL1        0.0710
      6 C           6.3892   -1.9666    1.9979 C.3     1  UNL1        0.0711
      7 O           6.8625   -2.9328    2.9246 O.3     1  UNL1       -0.3757
      8 C           8.2825   -2.9328    2.9246 C.3     1  UNL1        0.0673
      9 C           8.7892   -3.9671    3.9166 C.3     1  UNL1        0.0665
     10 N          10.2592   -3.9671    3.9166 N.ar    1  UNL1       -0.2488
     11 C          10.9556   -4.8376    4.7516 C.ar    1  UNL1        0.0580
     12 C          12.3958   -4.8376    4.7516 C.ar    1  UNL1        0.1666
     13 C          13.1558   -3.8876    3.8404 C.2     1  UNL1        0.2632
     14 N          14.6258   -3.8876    3.8404 N.am    1  UNL1       -0.3240
     15 O          12.5204   -3.0933    3.0785 O.2     1  UNL1       -0.2686
     16 N          13.0922   -5.7082    5.5865 N.ar    1  UNL1       -0.1248
     17 N          10.9319   -3.1262    3.1101 N.ar    1  UNL1       -0.0649
     18 H           0.5925    0.7619   -0.6191 H       1  UNL1        0.0230
     19 H           0.5925    0.2745    1.0589 H       1  UNL1        0.0230
     20 H           0.5925   -0.9350   -0.2021 H       1  UNL1        0.0230
     21 H           2.8259    1.0026    0.3606 H       1  UNL1        0.0285
     22 H           2.8259   -0.2069   -0.9004 H       1  UNL1        0.0285
     23 H           2.6192   -1.9692    0.7898 H       1  UNL1        0.0560
     24 H           2.6192   -0.7597    2.0509 H       1  UNL1        0.0560
     25 H           4.5125   -2.9354    1.7166 H       1  UNL1        0.0583
     26 H           4.5125   -1.7259    2.9776 H       1  UNL1        0.0583
     27 H           6.7459   -0.9979    2.2793 H       1  UNL1        0.0583
     28 H           6.7459   -2.2074    1.0183 H       1  UNL1        0.0583
     29 H           8.6392   -1.9641    3.2060 H       1  UNL1        0.0578
     30 H           8.6392   -3.1736    1.9450 H       1  UNL1        0.0578
     31 H           8.4325   -4.9359    3.6353 H       1  UNL1        0.0532
     32 H           8.4325   -3.7264    4.8963 H       1  UNL1        0.0532
     33 H          10.4396   -5.4826    5.3702 H       1  UNL1        0.0850
     34 H          15.1181   -4.5029    4.4306 H       1  UNL1        0.1453
     35 H          15.1181   -3.2723    3.2502 H       1  UNL1        0.1453
@<TRIPOS>BOND
     1     1     2    1
     2     2     3    1
     3     3     4    1
     4     4     5    1
     5     5     6    1
     6     6     7    1
     7     7     8    1
     8     8     9    1
     9     9    10    1
    10    10    11   ar
    11    11    12   ar
    12    12    13    1
    13    13    14   am
    14    13    15    2
    15    12    16   ar
    16    16    17   ar
    17    10    17   ar
    18     1    18    1
    19     1    19    1
    20     1    20    1
    21     2    21    1
    22     2    22    1
    23     3    23    1
    24     3    24    1
    25     5    25    1
    26     5    26    1
    27     6    27    1
    28     6    28    1
    29     8    29    1
    30     8    30    1
    31     9    31    1
    32     9    32    1
    33    11    33    1
    34    14    34    1
    35    14    35    1
