@<TRIPOS>MOLECULE
*****
 28 27 0 0 0
SMALL
GASTEIGER

@<TRIPOS>ATOM
      1 C           0.9234    0.0351    0.0539 C.3     1  UNL1       -0.0653
      2 C           2.4434    0.0351    0.0539 C.3     1  UNL1       -0.0559
      3 C           2.9501    0.8156    1.2558 C.3     1  UNL1       -0.0533
      4 C           4.4701    0.8156    1.2558 C.3     1  UNL1       -0.0519
      5 C           4.9767    1.5960    2.4577 C.3     1  UNL1       -0.0402
      6 C           6.4967    1.5960    2.4577 C.3     1  UNL1       -0.0017
      7 N           6.9867    2.3508    3.6200 N.3     1  UNL1       -0.3083
      8 C           6.4967    1.7216    4.8549 C.3     1  UNL1       -0.0131
      9 C           8.4567    2.3508    3.6200 C.3     1  UNL1       -0.0131
     10 H           0.5668   -0.5144   -0.7922 H       1  UNL1        0.0230
     11 H           0.5667    1.0425    0.0011 H       1  UNL1        0.0230
     12 H           0.5667   -0.4229    0.9527 H       1  UNL1        0.0230
     13 H           2.8001    0.4931   -0.8449 H       1  UNL1        0.0263
     14 H           2.8001   -0.9724    0.1067 H       1  UNL1        0.0263
     15 H           2.5934    0.3575    2.1546 H       1  UNL1        0.0265
     16 H           2.5934    1.8230    1.2030 H       1  UNL1        0.0265
     17 H           4.8267    1.2736    0.3569 H       1  UNL1        0.0266
     18 H           4.8267   -0.1919    1.3086 H       1  UNL1        0.0266
     19 H           4.6201    1.1380    3.3565 H       1  UNL1        0.0278
     20 H           4.6201    2.6035    2.4049 H       1  UNL1        0.0278
     21 H           6.8534    2.0540    1.5588 H       1  UNL1        0.0426
     22 H           6.8534    0.5886    2.5105 H       1  UNL1        0.0426
     23 H           5.4267    1.7216    4.8549 H       1  UNL1        0.0391
     24 H           6.8534    2.2710    5.7010 H       1  UNL1        0.0391
     25 H           6.8534    0.7142    4.9077 H       1  UNL1        0.0391
     26 H           8.8134    2.8089    2.7212 H       1  UNL1        0.0391
     27 H           8.8134    1.3434    3.6728 H       1  UNL1        0.0391
     28 H           8.8134    2.9003    4.4661 H       1  UNL1        0.0391
@<TRIPOS>BOND
     1     1     2    1
     2     2     3    1
     3     3     4    1
     4     4     5    1
     5     5     6    1
     6     6     7    1
     7     7     8    1
     8     7     9    1
     9     1    10    1
    10     1    11    1
    11     1    12    1
    12     2    13    1
    13     2    14    1
    14     3    15    1
    15     3    16    1
    16     4    17    1
    17     4    18    1
    18     5    19    1
    19     5    20    1
    20     6    21    1
    21     6    22    1
    22     8    23    1
    23     8    24    1
    24     8    25    1
    25     9    26    1
    26     9    27    1
    27     9    28    1
