@<TRIPOS>MOLECULE
*****
 36 35 0 0 0
SMALL
GASTEIGER

@<TRIPOS>ATOM
      1 N           0.9144    0.0177    0.0486 N.3     1  UNL1       -0.3300
      2 C           2.3844    0.0177    0.0486 C.3     1  UNL1       -0.0069
      3 C           2.8911    0.3021   -1.3560 C.3     1  UNL1       -0.0406
      4 C           4.4111    0.3021   -1.3560 C.3     1  UNL1       -0.0519
      5 C           4.9177    0.5866   -2.7605 C.3     1  UNL1       -0.0530
      6 C           6.4377    0.5866   -2.7605 C.3     1  UNL1       -0.0531
      7 C           6.9444    0.8710   -4.1651 C.3     1  UNL1       -0.0531
      8 C           8.4644    0.8710   -4.1651 C.3     1  UNL1       -0.0530
      9 C           8.9710    1.1554   -5.5697 C.3     1  UNL1       -0.0519
     10 C          10.4910    1.1554   -5.5697 C.3     1  UNL1       -0.0406
     11 C          10.9977    1.4399   -6.9742 C.3     1  UNL1       -0.0069
     12 N          12.4677    1.4399   -6.9742 N.3     1  UNL1       -0.3300
     13 H           0.5744   -0.1732    0.9911 H       1  UNL1        0.1182
     14 H           0.5744   -0.7031   -0.5880 H       1  UNL1        0.1182
     15 H           2.7411   -0.9387    0.3696 H       1  UNL1        0.0422
     16 H           2.7411    0.7738    0.7164 H       1  UNL1        0.0422
     17 H           2.5344    1.2585   -1.6769 H       1  UNL1        0.0277
     18 H           2.5344   -0.4540   -2.0237 H       1  UNL1        0.0277
     19 H           4.7677   -0.6543   -1.0350 H       1  UNL1        0.0266
     20 H           4.7677    1.0583   -0.6882 H       1  UNL1        0.0266
     21 H           4.5611    1.5429   -3.0815 H       1  UNL1        0.0265
     22 H           4.5611   -0.1696   -3.4283 H       1  UNL1        0.0265
     23 H           6.7944   -0.3698   -2.4396 H       1  UNL1        0.0265
     24 H           6.7944    1.3427   -2.0928 H       1  UNL1        0.0265
     25 H           6.5877    1.8274   -4.4861 H       1  UNL1        0.0265
     26 H           6.5877    0.1148   -4.8329 H       1  UNL1        0.0265
     27 H           8.8211   -0.0854   -3.8441 H       1  UNL1        0.0265
     28 H           8.8211    1.6271   -3.4973 H       1  UNL1        0.0265
     29 H           8.6144    2.1118   -5.8906 H       1  UNL1        0.0266
     30 H           8.6144    0.3993   -6.2374 H       1  UNL1        0.0266
     31 H          10.8477    0.1990   -5.2487 H       1  UNL1        0.0277
     32 H          10.8477    1.9116   -4.9019 H       1  UNL1        0.0277
     33 H          10.6410    2.3963   -7.2952 H       1  UNL1        0.0422
     34 H          10.6410    0.6837   -7.6420 H       1  UNL1        0.0422
     35 H          12.8077    2.1607   -6.3376 H       1  UNL1        0.1182
     36 H          12.8077    1.6307   -7.9167 H       1  UNL1        0.1182
@<TRIPOS>BOND
     1     1     2    1
     2     2     3    1
     3     3     4    1
     4     4     5    1
     5     5     6    1
     6     6     7    1
     7     7     8    1
     8     8     9    1
     9     9    10    1
    10    10    11    1
    11    11    12    1
    12     1    13    1
    13     1    14    1
    14     2    15    1
    15     2    16    1
    16     3    17    1
    17     3    18    1
    18     4    19    1
    19     4    20    1
    20     5    21    1
    21     5    22    1
    22     6    23    1
    23     6    24    1
    24     7    25    1
    25     7    26    1
    26     8    27    1
    27     8    28    1
    28     9    29    1
    29     9    30    1
    30    10    31    1
    31    10    32    1
    32    11    33    1
    33    11    34    1
    34    12    35    1
    35    12    36    1
