@<TRIPOS>MOLECULE
*****
 37 38 0 0 0
SMALL
GASTEIGER

@<TRIPOS>ATOM
      1 C           1.0833   -0.0205    0.0514 C.3     1  UNL1       -0.0127
      2 N           2.5533   -0.0205    0.0514 N.3     1  UNL1       -0.3029
      3 C           3.0433   -0.5139   -1.2437 C.3     1  UNL1        0.0114
      4 C           4.5633   -0.5139   -1.2437 C.3     1  UNL1        0.0117
      5 N           5.0533   -1.0074   -2.5388 N.3     1  UNL1       -0.2996
      6 C           4.5633   -0.1325   -3.6137 C.3     1  UNL1        0.0019
      7 C           3.0433   -0.1325   -3.6137 C.3     1  UNL1       -0.0260
      8 C           2.5366    0.7722   -4.7251 C.3     1  UNL1       -0.0364
      9 C           1.0166    0.7722   -4.7251 C.3     1  UNL1       -0.0038
     10 N           0.5266    1.6470   -5.8000 N.3     1  UNL1       -0.3160
     11 C          -0.9434    1.6470   -5.8000 C.3     1  UNL1       -0.0038
     12 C           2.5366    0.3777   -2.2745 C.3     1  UNL1       -0.0364
     13 C           6.5233   -1.0074   -2.5388 C.3     1  UNL1        0.0117
     14 C           3.0433   -0.8954    1.1263 C.3     1  UNL1        0.0114
     15 H           0.7266    0.6163   -0.7310 H       1  UNL1        0.0391
     16 H           0.7266    0.3387    0.9941 H       1  UNL1        0.0391
     17 H           0.7266   -1.0165   -0.1089 H       1  UNL1        0.0391
     18 H           2.6866    0.1229   -2.0261 H       1  UNL1        0.0439
     19 H           2.6866   -1.5099   -1.4040 H       1  UNL1        0.0439
     20 H           4.9199   -1.1507   -0.4613 H       1  UNL1        0.0439
     21 H           4.9199    0.4821   -1.0834 H       1  UNL1        0.0439
     22 H           4.9199   -0.4916   -4.5564 H       1  UNL1        0.0429
     23 H           4.9199    0.8635   -3.4534 H       1  UNL1        0.0429
     24 H           2.6866   -1.1285   -3.7740 H       1  UNL1        0.0314
     25 H           2.8933    0.4130   -5.6678 H       1  UNL1        0.0281
     26 H           2.8933    1.7681   -4.5648 H       1  UNL1        0.0281
     27 H           0.6599    1.1313   -3.7824 H       1  UNL1        0.0424
     28 H           0.6599   -0.2238   -4.8854 H       1  UNL1        0.0424
     29 H           0.8666    1.3046   -6.6987 H       1  UNL1        0.1219
     30 H          -1.5097    0.9087   -6.3283 H       1  UNL1        0.0424
     31 H          -1.7657    2.3172   -5.9398 H       1  UNL1        0.0424
     32 H           2.2579   -0.3476   -1.5389 H       1  UNL1        0.0281
     33 H           3.0303    0.9995   -1.5572 H       1  UNL1        0.0281
     34 H           7.0909   -0.1416   -2.8092 H       1  UNL1        0.0439
     35 H           7.3484   -1.5997   -2.8753 H       1  UNL1        0.0439
     36 H           3.3150   -0.4364    2.0539 H       1  UNL1        0.0439
     37 H           2.5468   -1.7123    1.6068 H       1  UNL1        0.0439
@<TRIPOS>BOND
     1     1     2    1
     2     2     3    1
     3     3     4    1
     4     4     5    1
     5     5     6    1
     6     6     7    1
     7     7     8    1
     8     8     9    1
     9     9    10    1
    10    10    11    1
    11    11    12    1
    12     7    12    1
    13     5    13    1
    14    13    14    1
    15     2    14    1
    16     1    15    1
    17     1    16    1
    18     1    17    1
    19     3    18    1
    20     3    19    1
    21     4    20    1
    22     4    21    1
    23     6    22    1
    24     6    23    1
    25     7    24    1
    26     8    25    1
    27     8    26    1
    28     9    27    1
    29     9    28    1
    30    10    29    1
    31    11    30    1
    32    11    31    1
    33    12    32    1
    34    12    33    1
    35    13    34    1
    36    13    35    1
    37    14    36    1
    38    14    37    1
