@<TRIPOS>MOLECULE
*****
 79 83 0 0 0
SMALL
GASTEIGER

@<TRIPOS>ATOM
      1 C           0.9756    0.0372   -0.0895 C.3     1  UNL1       -0.0621
      2 C           2.4956    0.0372   -0.0895 C.3     1  UNL1       -0.0189
      3 C           3.0022    1.2826   -0.7985 C.3     1  UNL1        0.1176
      4 O           4.4222    1.2826   -0.7985 O.2     1  UNL1       -0.3933
      5 N           5.1072    2.3137   -1.3855 N.2     1  UNL1       -0.0826
      6 C           6.4229    2.3137   -1.3855 C.2     1  UNL1        0.1333
      7 C           7.1829    3.4577   -2.0368 C.2     1  UNL1        0.0738
      8 C           6.5027    4.4815   -2.6197 C.2     1  UNL1        0.0694
      9 C           7.2627    5.6255   -3.2709 C.2     1  UNL1        0.2537
     10 O           8.5336    5.6255   -3.2709 O.2     1  UNL1       -0.2695
     11 N           6.5277    6.7318   -3.9008 N.am    1  UNL1       -0.2609
     12 C           5.0577    6.7318   -3.9008 C.3     1  UNL1        0.0655
     13 C           4.5510    5.4864   -3.1918 C.ar    1  UNL1        0.1004
     14 C           3.1351    5.2577   -3.0616 C.ar    1  UNL1        0.0503
     15 N           2.6708    4.1165   -2.4119 N.ar    1  UNL1       -0.2492
     16 C           3.6261    3.1455   -1.8591 C.3     1  UNL1        0.0665
     17 C           5.0445    3.6202   -2.1293 C.3     1  UNL1        0.0673
     18 O           5.9673    2.6822   -1.5953 O.3     1  UNL1       -0.3757
     19 C           7.2925    3.1256   -1.8477 C.3     1  UNL1        0.0711
     20 C           8.2802    2.1216   -1.2762 C.3     1  UNL1        0.0711
     21 O           9.6054    2.5650   -1.5286 O.3     1  UNL1       -0.3752
     22 C          10.5281    1.6270   -0.9946 C.3     1  UNL1        0.0711
     23 C          11.9466    2.1017   -1.2648 C.3     1  UNL1        0.0711
     24 O          12.8694    1.1637   -0.7308 O.3     1  UNL1       -0.3763
     25 C          14.1946    1.6071   -0.9833 C.3     1  UNL1        0.0600
     26 C          15.1823    0.6031   -0.4117 C.3     1  UNL1        0.0166
     27 N          16.5541    1.0621   -0.6730 N.3     1  UNL1       -0.3279
     28 N           1.3480    3.9029   -2.2902 N.ar    1  UNL1       -0.0653
     29 N           5.4561    4.5664   -2.6680 N.ar    1  UNL1       -0.1329
     30 C           7.2627    7.8382   -4.5306 C.ar    1  UNL1        0.0449
     31 C           6.5426    8.9221   -5.1477 C.ar    1  UNL1       -0.0397
     32 C           7.2627   10.0060   -5.7647 C.ar    1  UNL1       -0.0600
     33 C           6.5426   11.0899   -6.3818 C.ar    1  UNL1       -0.0611
     34 C           7.2627   12.1738   -6.9989 C.ar    1  UNL1       -0.0520
     35 C           4.9827    4.4815   -2.6197 C.ar    1  UNL1        0.0104
     36 N           8.6529    3.4577   -2.0368 N.pl3   1  UNL1       -0.3116
     37 C           9.3879    4.5640   -2.6666 C.ar    1  UNL1        0.0408
     38 C          10.8281    4.5640   -2.6666 C.ar    1  UNL1       -0.0399
     39 C          11.5482    5.6479   -3.2837 C.ar    1  UNL1       -0.0600
     40 C          12.9884    5.6479   -3.2837 C.ar    1  UNL1       -0.0610
     41 C          13.7085    6.7318   -3.9008 C.ar    1  UNL1       -0.0506
     42 C           7.1829    1.1697   -0.7343 C.ar    1  UNL1        0.0265
     43 H           0.6189   -0.8395    0.4096 H       1  UNL1        0.0231
     44 H           0.6189    0.0433   -1.0983 H       1  UNL1        0.0231
     45 H           0.6189    0.9078    0.4201 H       1  UNL1        0.0231
     46 H           2.8522   -0.8334   -0.5992 H       1  UNL1        0.0296
     47 H           2.8522    0.0311    0.9192 H       1  UNL1        0.0296
     48 H           2.6456    2.1532   -0.2889 H       1  UNL1        0.0723
     49 H           2.6456    1.2887   -1.8073 H       1  UNL1        0.0723
     50 H           4.7010    6.7379   -4.9095 H       1  UNL1        0.0534
     51 H           4.7010    7.6024   -3.3911 H       1  UNL1        0.0534
     52 H           2.4644    5.9394   -3.4496 H       1  UNL1        0.0846
     53 H           3.4744    2.1929   -2.3220 H       1  UNL1        0.0532
     54 H           3.4744    3.0573   -0.8036 H       1  UNL1        0.0532
     55 H           5.1962    4.5728   -1.6663 H       1  UNL1        0.0578
     56 H           5.1962    3.7084   -3.1848 H       1  UNL1        0.0578
     57 H           7.4441    4.0783   -1.3848 H       1  UNL1        0.0583
     58 H           7.4441    3.2138   -2.9033 H       1  UNL1        0.0583
     59 H           8.1286    1.1689   -1.7391 H       1  UNL1        0.0583
     60 H           8.1286    2.0334   -0.2206 H       1  UNL1        0.0583
     61 H          10.3765    0.6744   -1.4576 H       1  UNL1        0.0583
     62 H          10.3765    1.5388    0.0609 H       1  UNL1        0.0583
     63 H          12.0982    3.0543   -0.8019 H       1  UNL1        0.0583
     64 H          12.0982    2.1899   -2.3203 H       1  UNL1        0.0583
     65 H          14.3462    2.5598   -0.5203 H       1  UNL1        0.0572
     66 H          14.3462    1.6953   -2.0388 H       1  UNL1        0.0572
     67 H          15.0307   -0.3496   -0.8746 H       1  UNL1        0.0444
     68 H          15.0307    0.5149    0.6438 H       1  UNL1        0.0444
     69 H          16.6987    1.1462   -1.6792 H       1  UNL1        0.1183
     70 H          17.2170    0.3884   -0.2894 H       1  UNL1        0.1183
     71 H           5.5106    8.9221   -5.1477 H       1  UNL1        0.0636
     72 H           8.2947   10.0060   -5.7647 H       1  UNL1        0.0618
     73 H           5.5106   11.0899   -6.3818 H       1  UNL1        0.0618
     74 H           7.6530   13.0040   -7.4715 H       1  UNL1        0.0624
     75 H           9.1451    2.7167   -1.6150 H       1  UNL1        0.1522
     76 H          11.3441    3.7873   -2.2245 H       1  UNL1        0.0636
     77 H          11.0322    6.4246   -3.7259 H       1  UNL1        0.0618
     78 H          13.5044    4.8712   -2.8415 H       1  UNL1        0.0618
     79 H          14.3407    7.4407   -4.3043 H       1  UNL1        0.0625
@<TRIPOS>BOND
     1     1     2    1
     2     2     3    1
     3     3     4    1
     4     4     5    1
     5     5     6    2
     6     6     7    1
     7     7     8    2
     8     8     9    1
     9     9    10    2
    10     9    11   am
    11    11    12    1
    12    12    13    1
    13    13    14   ar
    14    14    15   ar
    15    15    16    1
    16    16    17    1
    17    17    18    1
    18    18    19    1
    19    19    20    1
    20    20    21    1
    21    21    22    1
    22    22    23    1
    23    23    24    1
    24    24    25    1
    25    25    26    1
    26    26    27    1
    27    15    28   ar
    28    28    29   ar
    29    13    29   ar
    30    11    30    1
    31    30    31   ar
    32    31    32   ar
    33    32    33   ar
    34    33    34   ar
    35    34    35   ar
    36    30    35   ar
    37     8    35    1
    38     7    36    1
    39    36    37    1
    40    37    38   ar
    41    38    39   ar
    42    39    40   ar
    43    40    41   ar
    44    41    42   ar
    45    37    42   ar
    46     6    42    1
    47     1    43    1
    48     1    44    1
    49     1    45    1
    50     2    46    1
    51     2    47    1
    52     3    48    1
    53     3    49    1
    54    12    50    1
    55    12    51    1
    56    14    52    1
    57    16    53    1
    58    16    54    1
    59    17    55    1
    60    17    56    1
    61    19    57    1
    62    19    58    1
    63    20    59    1
    64    20    60    1
    65    22    61    1
    66    22    62    1
    67    23    63    1
    68    23    64    1
    69    25    65    1
    70    25    66    1
    71    26    67    1
    72    26    68    1
    73    27    69    1
    74    27    70    1
    75    31    71    1
    76    32    72    1
    77    33    73    1
    78    34    74    1
    79    36    75    1
    80    38    76    1
    81    39    77    1
    82    40    78    1
    83    41    79    1
