@<TRIPOS>MOLECULE
*****
 36 36 0 0 0
SMALL
GASTEIGER

@<TRIPOS>ATOM
      1 N           0.9473    0.0660   -0.0535 N.3     1  UNL1       -0.3279
      2 C           2.4173    0.0660   -0.0535 C.3     1  UNL1        0.0166
      3 C           2.9240    1.2542    0.7477 C.3     1  UNL1        0.0600
      4 O           4.3440    1.2542    0.7477 O.3     1  UNL1       -0.3767
      5 C           4.8173    2.3641    1.4963 C.3     1  UNL1        0.0673
      6 C           6.3373    2.3641    1.4963 C.3     1  UNL1        0.0665
      7 N           6.8273    3.5132    2.2711 N.ar    1  UNL1       -0.2492
      8 C           8.1966    3.7242    2.4134 C.ar    1  UNL1        0.0487
      9 C           8.6767    4.8500    3.1726 C.ar    1  UNL1        0.0828
     10 C           7.6890    5.8079    3.8186 C.3     1  UNL1       -0.0071
     11 C           6.2705    5.3551    3.5132 C.3     1  UNL1       -0.0455
     12 C           5.2827    6.3129    4.1592 C.3     1  UNL1       -0.0294
     13 C           3.8642    5.8601    3.8538 C.3     1  UNL1        0.0442
     14 O           2.9415    6.7550    4.4573 O.3     1  UNL1       -0.3950
     15 N          10.0461    5.0610    3.3149 N.ar    1  UNL1       -0.1345
     16 N           5.9530    4.3611    2.8429 N.ar    1  UNL1       -0.0654
     17 H           0.6073   -0.7313   -0.5912 H       1  UNL1        0.1183
     18 H           0.6073    0.9303   -0.4752 H       1  UNL1        0.1183
     19 H           2.7740    0.1363   -1.0599 H       1  UNL1        0.0444
     20 H           2.7740   -0.8407    0.3888 H       1  UNL1        0.0444
     21 H           2.5673    1.1839    1.7541 H       1  UNL1        0.0572
     22 H           2.5673    2.1608    0.3054 H       1  UNL1        0.0572
     23 H           4.4606    2.2939    2.5026 H       1  UNL1        0.0578
     24 H           4.4606    3.2708    1.0539 H       1  UNL1        0.0578
     25 H           6.6939    2.4344    0.4899 H       1  UNL1        0.0532
     26 H           6.6939    1.4575    1.9386 H       1  UNL1        0.0532
     27 H           8.8673    3.0739    1.9749 H       1  UNL1        0.0845
     28 H           7.8406    6.7929    3.4291 H       1  UNL1        0.0329
     29 H           7.8406    5.8159    4.8777 H       1  UNL1        0.0329
     30 H           6.1189    4.3701    3.9027 H       1  UNL1        0.0270
     31 H           6.1189    5.3470    2.4540 H       1  UNL1        0.0270
     32 H           5.4343    7.2979    3.7697 H       1  UNL1        0.0287
     33 H           5.4343    6.3210    5.2183 H       1  UNL1        0.0287
     34 H           3.7126    4.8751    4.2433 H       1  UNL1        0.0557
     35 H           3.7126    5.8521    2.7946 H       1  UNL1        0.0557
     36 H           3.0789    6.7623    5.4174 H       1  UNL1        0.2094
@<TRIPOS>BOND
     1     1     2    1
     2     2     3    1
     3     3     4    1
     4     4     5    1
     5     5     6    1
     6     6     7    1
     7     7     8   ar
     8     8     9   ar
     9     9    10    1
    10    10    11    1
    11    11    12    1
    12    12    13    1
    13    13    14    1
    14     9    15   ar
    15    15    16   ar
    16     7    16   ar
    17     1    17    1
    18     1    18    1
    19     2    19    1
    20     2    20    1
    21     3    21    1
    22     3    22    1
    23     5    23    1
    24     5    24    1
    25     6    25    1
    26     6    26    1
    27     8    27    1
    28    10    28    1
    29    10    29    1
    30    11    30    1
    31    11    31    1
    32    12    32    1
    33    12    33    1
    34    13    34    1
    35    13    35    1
    36    14    36    1
