@<TRIPOS>MOLECULE
*****
 33 32 0 0 0
SMALL
GASTEIGER

@<TRIPOS>ATOM
      1 N           1.0594   -0.0639   -0.0488 N.3     1  UNL1       -0.3279
      2 C           2.5294   -0.0639   -0.0488 C.3     1  UNL1        0.0166
      3 C           3.0361   -0.1959    1.3781 C.3     1  UNL1        0.0600
      4 O           4.4561   -0.1959    1.3781 O.3     1  UNL1       -0.3763
      5 C           4.9294   -0.3192    2.7112 C.3     1  UNL1        0.0711
      6 C           6.4494   -0.3192    2.7112 C.3     1  UNL1        0.0711
      7 O           6.9228   -0.4426    4.0443 O.3     1  UNL1       -0.3752
      8 C           8.3428   -0.4426    4.0443 C.3     1  UNL1        0.0711
      9 C           8.8494   -0.5746    5.4713 C.3     1  UNL1        0.0711
     10 O          10.2694   -0.5746    5.4713 O.3     1  UNL1       -0.3763
     11 C          10.7428   -0.6979    6.8044 C.3     1  UNL1        0.0600
     12 C          12.2628   -0.6979    6.8044 C.3     1  UNL1        0.0166
     13 N          12.7527   -0.8256    8.1845 N.3     1  UNL1       -0.3279
     14 H           0.7194    0.0247   -1.0064 H       1  UNL1        0.1183
     15 H           0.7194    0.7211    0.5067 H       1  UNL1        0.1183
     16 H           2.8861    0.8525   -0.4706 H       1  UNL1        0.0444
     17 H           2.8861   -0.8874   -0.6316 H       1  UNL1        0.0444
     18 H           2.6794   -1.1123    1.7999 H       1  UNL1        0.0572
     19 H           2.6794    0.6276    1.9609 H       1  UNL1        0.0572
     20 H           4.5728   -1.2356    3.1330 H       1  UNL1        0.0583
     21 H           4.5728    0.5042    3.2940 H       1  UNL1        0.0583
     22 H           6.8061    0.5972    2.2895 H       1  UNL1        0.0583
     23 H           6.8061   -1.1427    2.1285 H       1  UNL1        0.0583
     24 H           8.6994    0.4738    3.6226 H       1  UNL1        0.0583
     25 H           8.6994   -1.2660    3.4616 H       1  UNL1        0.0583
     26 H           8.4928   -1.4910    5.8931 H       1  UNL1        0.0583
     27 H           8.4928    0.2489    6.0541 H       1  UNL1        0.0583
     28 H          10.3861   -1.6143    7.2262 H       1  UNL1        0.0572
     29 H          10.3861    0.1256    7.3872 H       1  UNL1        0.0572
     30 H          12.6194    0.2185    6.3826 H       1  UNL1        0.0444
     31 H          12.6194   -1.5214    6.2217 H       1  UNL1        0.0444
     32 H          12.4127   -0.0406    8.7400 H       1  UNL1        0.1183
     33 H          13.7727   -0.8256    8.1845 H       1  UNL1        0.1183
@<TRIPOS>BOND
     1     1     2    1
     2     2     3    1
     3     3     4    1
     4     4     5    1
     5     5     6    1
     6     6     7    1
     7     7     8    1
     8     8     9    1
     9     9    10    1
    10    10    11    1
    11    11    12    1
    12    12    13    1
    13     1    14    1
    14     1    15    1
    15     2    16    1
    16     2    17    1
    17     3    18    1
    18     3    19    1
    19     5    20    1
    20     5    21    1
    21     6    22    1
    22     6    23    1
    23     8    24    1
    24     8    25    1
    25     9    26    1
    26     9    27    1
    27    11    28    1
    28    11    29    1
    29    12    30    1
    30    12    31    1
    31    13    32    1
    32    13    33    1
