@<TRIPOS>MOLECULE
*****
 34 34 0 0 0
SMALL
GASTEIGER

@<TRIPOS>ATOM
      1 C           0.9431   -0.0809   -0.0150 C.3     1  UNL1       -0.0653
      2 C           2.4631   -0.0809   -0.0150 C.3     1  UNL1       -0.0556
      3 C           2.9698    1.3502   -0.0915 C.3     1  UNL1       -0.0478
      4 C           4.4898    1.3502   -0.0915 C.3     1  UNL1       -0.0071
      5 C           4.9964    2.7812   -0.1680 C.ar    1  UNL1        0.0828
      6 C           6.4124    3.0440   -0.1821 C.ar    1  UNL1        0.0487
      7 N           6.8767    4.3553   -0.2522 N.ar    1  UNL1       -0.2492
      8 C           5.9214    5.4710   -0.3119 C.3     1  UNL1        0.0665
      9 C           4.5029    4.9256   -0.2827 C.3     1  UNL1        0.0673
     10 O           3.5802    6.0034   -0.3404 O.3     1  UNL1       -0.3757
     11 C           2.2550    5.4939   -0.3131 C.3     1  UNL1        0.0708
     12 C           1.2672    6.6476   -0.3748 C.3     1  UNL1        0.0676
     13 O          -0.0579    6.1381   -0.3476 O.3     1  UNL1       -0.3927
     14 N           8.1995    4.6008   -0.2654 N.ar    1  UNL1       -0.0654
     15 N           4.0913    3.8383   -0.2246 N.ar    1  UNL1       -0.1345
     16 H           0.5865   -1.0882    0.0389 H       1  UNL1        0.0230
     17 H           0.5865    0.3762   -0.9143 H       1  UNL1        0.0230
     18 H           0.5865    0.4695    0.8305 H       1  UNL1        0.0230
     19 H           2.8198   -0.6312   -0.8605 H       1  UNL1        0.0263
     20 H           2.8198   -0.5379    0.8843 H       1  UNL1        0.0263
     21 H           2.6131    1.9005    0.7540 H       1  UNL1        0.0269
     22 H           2.6131    1.8072   -0.9909 H       1  UNL1        0.0269
     23 H           4.8465    0.7998   -0.9370 H       1  UNL1        0.0329
     24 H           4.8465    0.8931    0.8078 H       1  UNL1        0.0329
     25 H           7.0830    2.2607   -0.1402 H       1  UNL1        0.0845
     26 H           6.0730    6.0224   -1.2163 H       1  UNL1        0.0532
     27 H           6.0730    6.1157    0.5285 H       1  UNL1        0.0532
     28 H           4.3513    4.3743    0.6217 H       1  UNL1        0.0578
     29 H           4.3513    4.2809   -1.1231 H       1  UNL1        0.0578
     30 H           2.1034    4.9425    0.5913 H       1  UNL1        0.0583
     31 H           2.1034    4.8492   -1.1535 H       1  UNL1        0.0583
     32 H           1.4189    7.1989   -1.2792 H       1  UNL1        0.0580
     33 H           1.4189    7.2922    0.4656 H       1  UNL1        0.0580
     34 H          -0.1954    5.5536   -1.1094 H       1  UNL1        0.2095
@<TRIPOS>BOND
     1     1     2    1
     2     2     3    1
     3     3     4    1
     4     4     5    1
     5     5     6   ar
     6     6     7   ar
     7     7     8    1
     8     8     9    1
     9     9    10    1
    10    10    11    1
    11    11    12    1
    12    12    13    1
    13     7    14   ar
    14    14    15   ar
    15     5    15   ar
    16     1    16    1
    17     1    17    1
    18     1    18    1
    19     2    19    1
    20     2    20    1
    21     3    21    1
    22     3    22    1
    23     4    23    1
    24     4    24    1
    25     6    25    1
    26     8    26    1
    27     8    27    1
    28     9    28    1
    29     9    29    1
    30    11    30    1
    31    11    31    1
    32    12    32    1
    33    12    33    1
    34    13    34    1
