@<TRIPOS>MOLECULE
*****
 20 19 0 0 0
SMALL
GASTEIGER

@<TRIPOS>ATOM
      1 C           1.0619    0.0784    0.0046 C.3     1  UNL1       -0.0653
      2 C           2.5819    0.0784    0.0046 C.3     1  UNL1       -0.0559
      3 C           3.0886   -1.3547    0.0135 C.3     1  UNL1       -0.0533
      4 C           4.6086   -1.3547    0.0135 C.3     1  UNL1       -0.0533
      5 C           5.1152   -2.7877    0.0224 C.3     1  UNL1       -0.0559
      6 C           6.6352   -2.7877    0.0224 C.3     1  UNL1       -0.0653
      7 H           0.7053    1.0872   -0.0016 H       1  UNL1        0.0230
      8 H           0.7053   -0.4206    0.8814 H       1  UNL1        0.0230
      9 H           0.7053   -0.4314   -0.8659 H       1  UNL1        0.0230
     10 H           2.9386    0.5882    0.8751 H       1  UNL1        0.0263
     11 H           2.9386    0.5774   -0.8721 H       1  UNL1        0.0263
     12 H           2.7319   -1.8645   -0.8570 H       1  UNL1        0.0265
     13 H           2.7319   -1.8536    0.8903 H       1  UNL1        0.0265
     14 H           4.9653   -0.8449    0.8840 H       1  UNL1        0.0265
     15 H           4.9653   -0.8557   -0.8632 H       1  UNL1        0.0265
     16 H           4.7586   -3.2975   -0.8481 H       1  UNL1        0.0263
     17 H           4.7586   -3.2867    0.8992 H       1  UNL1        0.0263
     18 H           6.9919   -2.2887   -0.8544 H       1  UNL1        0.0230
     19 H           6.9919   -3.7965    0.0287 H       1  UNL1        0.0230
     20 H           6.9919   -2.2779    0.8929 H       1  UNL1        0.0230
@<TRIPOS>BOND
     1     1     2    1
     2     2     3    1
     3     3     4    1
     4     4     5    1
     5     5     6    1
     6     1     7    1
     7     1     8    1
     8     1     9    1
     9     2    10    1
    10     2    11    1
    11     3    12    1
    12     3    13    1
    13     4    14    1
    14     4    15    1
    15     5    16    1
    16     5    17    1
    17     6    18    1
    18     6    19    1
    19     6    20    1
