@<TRIPOS>MOLECULE
*****
 9 8 0 0 0
SMALL
GASTEIGER

@<TRIPOS>ATOM
      1 C           0.9037    0.0267   -0.0025 C.3     1  UNL1       -0.0564
      2 C           2.4237    0.0267   -0.0025 C.3     1  UNL1       -0.0122
      3 S           3.0270    1.4728   -0.9085 S.3     1  UNL1       -0.1785
      4 H           0.5470   -0.8282    0.5330 H       1  UNL1        0.0237
      5 H           0.5470   -0.0097   -1.0107 H       1  UNL1        0.0237
      6 H           0.5470    0.9180    0.4701 H       1  UNL1        0.0237
      7 H           2.7803   -0.8646   -0.4751 H       1  UNL1        0.0371
      8 H           2.7803    0.0631    1.0056 H       1  UNL1        0.0371
      9 H           2.5737    1.4266   -2.1899 H       1  UNL1        0.1016
@<TRIPOS>BOND
     1     1     2    1
     2     2     3    1
     3     1     4    1
     4     1     5    1
     5     1     6    1
     6     2     7    1
     7     2     8    1
     8     3     9    1
