@<TRIPOS>MOLECULE
*****
 18 17 0 0 0
SMALL
GASTEIGER

@<TRIPOS>ATOM
      1 C           0.9143    0.0516   -0.0009 C.3     1  UNL1       -0.0495
      2 C           2.4343    0.0516   -0.0009 C.3     1  UNL1        0.0088
      3 N           2.9243   -1.2490   -0.4797 N.am    1  UNL1       -0.3156
      4 C           4.3696   -1.5011   -0.5726 C.2     1  UNL1        0.2128
      5 O           5.1954   -0.5946   -0.2388 O.2     1  UNL1       -0.2758
      6 C           4.8762   -2.8459   -1.0677 C.3     1  UNL1        0.0211
      7 C           6.3962   -2.8459   -1.0677 C.3     1  UNL1       -0.0570
      8 H           0.5577    0.9983    0.3476 H       1  UNL1        0.0245
      9 H           0.5577   -0.7236    0.6447 H       1  UNL1        0.0245
     10 H           0.5577   -0.1199   -0.9950 H       1  UNL1        0.0245
     11 H           2.7910    0.2231    0.9932 H       1  UNL1        0.0459
     12 H           2.7910    0.8268   -0.6465 H       1  UNL1        0.0459
     13 H           2.2846   -1.9512   -0.7383 H       1  UNL1        0.1487
     14 H           4.5196   -3.0174   -2.0618 H       1  UNL1        0.0356
     15 H           4.5196   -3.6211   -0.4221 H       1  UNL1        0.0356
     16 H           6.7529   -2.0707   -1.7133 H       1  UNL1        0.0234
     17 H           6.7529   -3.7926   -1.4162 H       1  UNL1        0.0234
     18 H           6.7529   -2.6744   -0.0736 H       1  UNL1        0.0234
@<TRIPOS>BOND
     1     1     2    1
     2     2     3    1
     3     3     4   am
     4     4     5    2
     5     4     6    1
     6     6     7    1
     7     1     8    1
     8     1     9    1
     9     1    10    1
    10     2    11    1
    11     2    12    1
    12     3    13    1
    13     6    14    1
    14     6    15    1
    15     7    16    1
    16     7    17    1
    17     7    18    1
