@<TRIPOS>MOLECULE
*****
 67 67 0 0 0
SMALL
GASTEIGER

@<TRIPOS>ATOM
      1 N           1.0631    0.0100   -0.0769 N.3     1  UNL1       -0.3279
      2 C           2.5331    0.0100   -0.0769 C.3     1  UNL1        0.0166
      3 C           3.0397    1.0356   -1.0779 C.3     1  UNL1        0.0600
      4 O           4.4597    1.0356   -1.0779 O.3     1  UNL1       -0.3763
      5 C           4.9331    1.9937   -2.0129 C.3     1  UNL1        0.0711
      6 C           6.4531    1.9937   -2.0129 C.3     1  UNL1        0.0711
      7 O           6.9264    2.9519   -2.9480 O.3     1  UNL1       -0.3752
      8 C           8.3464    2.9519   -2.9480 C.3     1  UNL1        0.0711
      9 C           8.8531    3.9775   -3.9489 C.3     1  UNL1        0.0711
     10 O          10.2731    3.9775   -3.9489 O.3     1  UNL1       -0.3752
     11 C          10.7464    4.9356   -4.8840 C.3     1  UNL1        0.0711
     12 C          12.2664    4.9356   -4.8840 C.3     1  UNL1        0.0711
     13 O          12.7397    5.8937   -5.8191 O.3     1  UNL1       -0.3752
     14 C          14.1597    5.8937   -5.8191 C.3     1  UNL1        0.0711
     15 C          14.6664    6.9193   -6.8200 C.3     1  UNL1        0.0711
     16 O          16.0864    6.9193   -6.8200 O.3     1  UNL1       -0.3757
     17 C          16.5597    7.8774   -7.7551 C.3     1  UNL1        0.0673
     18 C          18.0797    7.8774   -7.7551 C.3     1  UNL1        0.0665
     19 N          18.5697    8.8693   -8.7231 N.ar    1  UNL1       -0.2492
     20 C          19.9391    9.0514   -8.9008 C.ar    1  UNL1        0.0487
     21 C          20.4191   10.0232   -9.8492 C.ar    1  UNL1        0.0828
     22 C          19.4314   10.8500  -10.6561 C.3     1  UNL1       -0.0071
     23 C          18.0129   10.4591  -10.2747 C.3     1  UNL1       -0.0475
     24 C          17.0252   11.2860  -11.0816 C.3     1  UNL1       -0.0506
     25 C          15.6067   10.8951  -10.7002 C.3     1  UNL1       -0.0297
     26 C          14.6189   11.7219  -11.5071 C.3     1  UNL1        0.0442
     27 O          13.2938   11.3568  -11.1507 O.3     1  UNL1       -0.3950
     28 N          21.7885   10.2053  -10.0270 N.ar    1  UNL1       -0.1345
     29 N          17.6954    9.6012   -9.4373 N.ar    1  UNL1       -0.0654
     30 H           0.7231   -0.6782    0.5947 H       1  UNL1        0.1183
     31 H           0.7231   -0.2275   -1.0088 H       1  UNL1        0.1183
     32 H           2.8898   -0.9612   -0.3499 H       1  UNL1        0.0444
     33 H           2.8898    0.2592    0.9006 H       1  UNL1        0.0444
     34 H           2.6831    2.0068   -0.8049 H       1  UNL1        0.0572
     35 H           2.6831    0.7864   -2.0554 H       1  UNL1        0.0572
     36 H           4.5764    2.9649   -1.7400 H       1  UNL1        0.0583
     37 H           4.5764    1.7445   -2.9905 H       1  UNL1        0.0583
     38 H           6.8097    1.0226   -2.2859 H       1  UNL1        0.0583
     39 H           6.8097    2.2430   -1.0354 H       1  UNL1        0.0583
     40 H           8.7031    1.9807   -3.2210 H       1  UNL1        0.0583
     41 H           8.7031    3.2011   -1.9705 H       1  UNL1        0.0583
     42 H           8.4964    4.9486   -3.6760 H       1  UNL1        0.0583
     43 H           8.4964    3.7282   -4.9265 H       1  UNL1        0.0583
     44 H          10.3897    5.9068   -4.6111 H       1  UNL1        0.0583
     45 H          10.3897    4.6864   -5.8615 H       1  UNL1        0.0583
     46 H          12.6231    3.9644   -5.1570 H       1  UNL1        0.0583
     47 H          12.6231    5.1848   -3.9065 H       1  UNL1        0.0583
     48 H          14.5164    4.9225   -6.0920 H       1  UNL1        0.0583
     49 H          14.5164    6.1429   -4.8415 H       1  UNL1        0.0583
     50 H          14.3097    7.8905   -6.5471 H       1  UNL1        0.0583
     51 H          14.3097    6.6701   -7.7975 H       1  UNL1        0.0583
     52 H          16.2030    8.8486   -7.4821 H       1  UNL1        0.0578
     53 H          16.2030    7.6282   -8.7326 H       1  UNL1        0.0578
     54 H          18.4364    6.9062   -8.0280 H       1  UNL1        0.0532
     55 H          18.4364    8.1266   -6.7775 H       1  UNL1        0.0532
     56 H          20.6097    8.4901   -8.3530 H       1  UNL1        0.0845
     57 H          19.5830   10.6684  -11.6997 H       1  UNL1        0.0329
     58 H          19.5830   11.8888  -10.4492 H       1  UNL1        0.0329
     59 H          17.8613   10.6407   -9.2312 H       1  UNL1        0.0269
     60 H          17.8613    9.4203  -10.4816 H       1  UNL1        0.0269
     61 H          17.1768   11.1043  -12.1251 H       1  UNL1        0.0266
     62 H          17.1768   12.3247  -10.8747 H       1  UNL1        0.0266
     63 H          15.4551   11.0767   -9.6566 H       1  UNL1        0.0287
     64 H          15.4551    9.8563  -10.9071 H       1  UNL1        0.0287
     65 H          14.7705   11.5403  -12.5506 H       1  UNL1        0.0557
     66 H          14.7705   12.7607  -11.3001 H       1  UNL1        0.0557
     67 H          13.1563   10.4151  -11.3383 H       1  UNL1        0.2094
@<TRIPOS>BOND
     1     1     2    1
     2     2     3    1
     3     3     4    1
     4     4     5    1
     5     5     6    1
     6     6     7    1
     7     7     8    1
     8     8     9    1
     9     9    10    1
    10    10    11    1
    11    11    12    1
    12    12    13    1
    13    13    14    1
    14    14    15    1
    15    15    16    1
    16    16    17    1
    17    17    18    1
    18    18    19    1
    19    19    20   ar
    20    20    21   ar
    21    21    22    1
    22    22    23    1
    23    23    24    1
    24    24    25    1
    25    25    26    1
    26    26    27    1
    27    21    28   ar
    28    28    29   ar
    29    19    29   ar
    30     1    30    1
    31     1    31    1
    32     2    32    1
    33     2    33    1
    34     3    34    1
    35     3    35    1
    36     5    36    1
    37     5    37    1
    38     6    38    1
    39     6    39    1
    40     8    40    1
    41     8    41    1
    42     9    42    1
    43     9    43    1
    44    11    44    1
    45    11    45    1
    46    12    46    1
    47    12    47    1
    48    14    48    1
    49    14    49    1
    50    15    50    1
    51    15    51    1
    52    17    52    1
    53    17    53    1
    54    18    54    1
    55    18    55    1
    56    20    56    1
    57    22    57    1
    58    22    58    1
    59    23    59    1
    60    23    60    1
    61    24    61    1
    62    24    62    1
    63    25    63    1
    64    25    64    1
    65    26    65    1
    66    26    66    1
    67    27    67    1
