@<TRIPOS>MOLECULE
*****
 37 36 0 0 0
SMALL
GASTEIGER

@<TRIPOS>ATOM
      1 C           1.0923    0.0374    0.0090 C.3     1  UNL1        0.0121
      2 C           2.6123    0.0374    0.0090 C.2     1  UNL1        0.2100
      3 O           3.2477   -0.9868    0.4119 O.2     1  UNL1       -0.2761
      4 N           3.3473    1.2221   -0.4570 N.am    1  UNL1       -0.3133
      5 C           4.8173    1.2221   -0.4570 C.3     1  UNL1        0.0350
      6 C           5.3240    2.5558   -0.9815 C.3     1  UNL1        0.0632
      7 O           6.7440    2.5558   -0.9815 O.3     1  UNL1       -0.3760
      8 C           7.2173    3.8016   -1.4716 C.3     1  UNL1        0.0711
      9 C           8.7373    3.8016   -1.4716 C.3     1  UNL1        0.0711
     10 O           9.2106    5.0475   -1.9616 O.3     1  UNL1       -0.3752
     11 C          10.6306    5.0475   -1.9616 C.3     1  UNL1        0.0711
     12 C          11.1373    6.3811   -2.4861 C.3     1  UNL1        0.0711
     13 O          12.5573    6.3811   -2.4861 O.3     1  UNL1       -0.3752
     14 C          13.0306    7.6270   -2.9762 C.3     1  UNL1        0.0708
     15 C          14.5506    7.6270   -2.9762 C.3     1  UNL1        0.0676
     16 O          15.0239    8.8729   -3.4662 O.3     1  UNL1       -0.3927
     17 H           0.7356   -0.9014    0.3783 H       1  UNL1        0.0322
     18 H           0.7356    0.1870   -0.9886 H       1  UNL1        0.0322
     19 H           0.7356    0.8266    0.6374 H       1  UNL1        0.0322
     20 H           2.8550    2.0156   -0.7690 H       1  UNL1        0.1488
     21 H           5.1740    0.4329   -1.0854 H       1  UNL1        0.0484
     22 H           5.1740    1.0725    0.5407 H       1  UNL1        0.0484
     23 H           4.9673    3.3449   -0.3531 H       1  UNL1        0.0575
     24 H           4.9673    2.7054   -1.9792 H       1  UNL1        0.0575
     25 H           6.8606    4.5908   -0.8432 H       1  UNL1        0.0583
     26 H           6.8606    3.9512   -2.4692 H       1  UNL1        0.0583
     27 H           9.0940    3.0125   -2.0999 H       1  UNL1        0.0583
     28 H           9.0940    3.6520   -0.4739 H       1  UNL1        0.0583
     29 H          10.9873    4.2583   -2.5900 H       1  UNL1        0.0583
     30 H          10.9873    4.8979   -0.9639 H       1  UNL1        0.0583
     31 H          10.7806    7.1703   -1.8578 H       1  UNL1        0.0583
     32 H          10.7806    6.5307   -3.4838 H       1  UNL1        0.0583
     33 H          12.6739    8.4162   -2.3478 H       1  UNL1        0.0583
     34 H          12.6739    7.7766   -3.9738 H       1  UNL1        0.0583
     35 H          14.9073    6.8378   -3.6046 H       1  UNL1        0.0580
     36 H          14.9073    7.4774   -1.9785 H       1  UNL1        0.0580
     37 H          14.7006    9.0085   -4.3706 H       1  UNL1        0.2095
@<TRIPOS>BOND
     1     1     2    1
     2     2     3    2
     3     2     4   am
     4     4     5    1
     5     5     6    1
     6     6     7    1
     7     7     8    1
     8     8     9    1
     9     9    10    1
    10    10    11    1
    11    11    12    1
    12    12    13    1
    13    13    14    1
    14    14    15    1
    15    15    16    1
    16     1    17    1
    17     1    18    1
    18     1    19    1
    19     4    20    1
    20     5    21    1
    21     5    22    1
    22     6    23    1
    23     6    24    1
    24     8    25    1
    25     8    26    1
    26     9    27    1
    27     9    28    1
    28    11    29    1
    29    11    30    1
    30    12    31    1
    31    12    32    1
    32    14    33    1
    33    14    34    1
    34    15    35    1
    35    15    36    1
    36    16    37    1
