@<TRIPOS>MOLECULE
*****
 15 14 0 0 0
SMALL
GASTEIGER

@<TRIPOS>ATOM
      1 N           0.9166    0.0230   -0.0502 N.3     1  UNL1       -0.3299
      2 C           2.3866    0.0230   -0.0502 C.3     1  UNL1       -0.0058
      3 C           2.8933   -0.9140    1.0341 C.3     1  UNL1       -0.0283
      4 C           4.4133   -0.9140    1.0341 C.3     1  UNL1       -0.0058
      5 N           4.9033   -1.8202    2.0827 N.3     1  UNL1       -0.3299
      6 H           0.5767    0.6518   -0.7778 H       1  UNL1        0.1182
      7 H           0.5766    0.3388    0.8581 H       1  UNL1        0.1182
      8 H           2.7433    1.0139    0.1394 H       1  UNL1        0.0422
      9 H           2.7433   -0.3082   -1.0031 H       1  UNL1        0.0422
     10 H           2.5366   -1.9048    0.8445 H       1  UNL1        0.0290
     11 H           2.5366   -0.5828    1.9870 H       1  UNL1        0.0290
     12 H           4.7700    0.0768    1.2237 H       1  UNL1        0.0422
     13 H           4.7700   -1.2452    0.0812 H       1  UNL1        0.0422
     14 H           4.5633   -1.5044    2.9911 H       1  UNL1        0.1182
     15 H           5.9233   -1.8202    2.0827 H       1  UNL1        0.1182
@<TRIPOS>BOND
     1     1     2    1
     2     2     3    1
     3     3     4    1
     4     4     5    1
     5     1     6    1
     6     1     7    1
     7     2     8    1
     8     2     9    1
     9     3    10    1
    10     3    11    1
    11     4    12    1
    12     4    13    1
    13     5    14    1
    14     5    15    1
