@<TRIPOS>MOLECULE
*****
 86 90 0 0 0
SMALL
GASTEIGER

@<TRIPOS>ATOM
      1 C           1.0758   -0.0445   -0.0478 C.3     1  UNL1       -0.0621
      2 C           2.5958   -0.0445   -0.0478 C.3     1  UNL1       -0.0189
      3 C           3.1024    1.3830   -0.1746 C.3     1  UNL1        0.1176
      4 O           4.5224    1.3830   -0.1746 O.2     1  UNL1       -0.3933
      5 N           5.2074    2.5648   -0.2795 N.2     1  UNL1       -0.0826
      6 C           6.5231    2.5648   -0.2795 C.2     1  UNL1        0.1333
      7 C           7.2831    3.8760   -0.3960 C.2     1  UNL1        0.0738
      8 C           6.6029    5.0495   -0.5002 C.2     1  UNL1        0.0694
      9 C           7.3629    6.3607   -0.6167 C.2     1  UNL1        0.2537
     10 O           8.6338    6.3607   -0.6167 O.2     1  UNL1       -0.2695
     11 N           6.6279    7.6288   -0.7293 N.am    1  UNL1       -0.2609
     12 C           5.1579    7.6288   -0.7293 C.3     1  UNL1        0.0655
     13 C           4.6512    6.2013   -0.6025 C.ar    1  UNL1        0.1004
     14 C           3.2353    5.9392   -0.5792 C.ar    1  UNL1        0.0503
     15 N           2.7710    4.6311   -0.4631 N.ar    1  UNL1       -0.2492
     16 C           3.7262    3.5182   -0.3642 C.3     1  UNL1        0.0665
     17 C           5.1447    4.0622   -0.4125 C.3     1  UNL1        0.0673
     18 O           6.0675    2.9872   -0.3170 O.3     1  UNL1       -0.3757
     19 C           7.3927    3.4954   -0.3622 C.3     1  UNL1        0.0711
     20 C           8.3804    2.3446   -0.2600 C.3     1  UNL1        0.0711
     21 O           9.7056    2.8528   -0.3051 O.3     1  UNL1       -0.3752
     22 C          10.6283    1.7777   -0.2096 C.3     1  UNL1        0.0711
     23 C          12.0468    2.3217   -0.2579 C.3     1  UNL1        0.0711
     24 O          12.9696    1.2467   -0.1625 O.3     1  UNL1       -0.3752
     25 C          14.2948    1.7549   -0.2076 C.3     1  UNL1        0.0711
     26 C          15.2825    0.6041   -0.1054 C.3     1  UNL1        0.0711
     27 O          16.6077    1.1123   -0.1505 O.3     1  UNL1       -0.3763
     28 C          17.5304    0.0373   -0.0550 C.3     1  UNL1        0.0600
     29 C          18.9489    0.5813   -0.1034 C.3     1  UNL1        0.0166
     30 N          19.9042   -0.5317   -0.0045 N.3     1  UNL1       -0.3279
     31 N           1.4482    4.3863   -0.4413 N.ar    1  UNL1       -0.0653
     32 N           5.5563    5.1468   -0.5089 N.ar    1  UNL1       -0.1329
     33 C           7.3629    8.8968   -0.8419 C.ar    1  UNL1        0.0449
     34 C           6.6428   10.1392   -0.9523 C.ar    1  UNL1       -0.0397
     35 C           7.3629   11.3815   -1.0626 C.ar    1  UNL1       -0.0600
     36 C           6.6428   12.6239   -1.1729 C.ar    1  UNL1       -0.0611
     37 C           7.3629   13.8663   -1.2833 C.ar    1  UNL1       -0.0520
     38 C           5.0829    5.0495   -0.5002 C.ar    1  UNL1        0.0104
     39 N           8.7531    3.8760   -0.3960 N.pl3   1  UNL1       -0.3116
     40 C           9.4881    5.1440   -0.5086 C.ar    1  UNL1        0.0408
     41 C          10.9283    5.1440   -0.5086 C.ar    1  UNL1       -0.0399
     42 C          11.6484    6.3864   -0.6189 C.ar    1  UNL1       -0.0600
     43 C          13.0886    6.3864   -0.6189 C.ar    1  UNL1       -0.0610
     44 C          13.8087    7.6288   -0.7293 C.ar    1  UNL1       -0.0506
     45 C           7.2831    1.2536   -0.1631 C.ar    1  UNL1        0.0265
     46 H           0.7191   -1.0493    0.0415 H       1  UNL1        0.0231
     47 H           0.7191    0.3807   -0.9626 H       1  UNL1        0.0231
     48 H           0.7191    0.5352    0.7778 H       1  UNL1        0.0231
     49 H           2.9524   -0.6242   -0.8734 H       1  UNL1        0.0296
     50 H           2.9524   -0.4696    0.8671 H       1  UNL1        0.0296
     51 H           2.7457    1.9627    0.6510 H       1  UNL1        0.0723
     52 H           2.7457    1.8081   -1.0894 H       1  UNL1        0.0723
     53 H           4.8012    8.0539   -1.6441 H       1  UNL1        0.0534
     54 H           4.8012    8.2085    0.0963 H       1  UNL1        0.0534
     55 H           2.5646    6.7205   -0.6486 H       1  UNL1        0.0846
     56 H           3.5746    2.8444   -1.1815 H       1  UNL1        0.0532
     57 H           3.5746    2.9990    0.5590 H       1  UNL1        0.0532
     58 H           5.2963    4.7360    0.4047 H       1  UNL1        0.0578
     59 H           5.2963    4.5815   -1.3357 H       1  UNL1        0.0578
     60 H           7.5443    4.1692    0.4551 H       1  UNL1        0.0583
     61 H           7.5443    4.0146   -1.2854 H       1  UNL1        0.0583
     62 H           8.2288    1.6708   -1.0772 H       1  UNL1        0.0583
     63 H           8.2288    1.8254    0.6632 H       1  UNL1        0.0583
     64 H          10.4767    1.1039   -1.0269 H       1  UNL1        0.0583
     65 H          10.4767    1.2585    0.7136 H       1  UNL1        0.0583
     66 H          12.1984    2.9956    0.5593 H       1  UNL1        0.0583
     67 H          12.1984    2.8410   -1.1811 H       1  UNL1        0.0583
     68 H          14.4464    2.4287    0.6096 H       1  UNL1        0.0583
     69 H          14.4464    2.2741   -1.1308 H       1  UNL1        0.0583
     70 H          15.1309   -0.0697   -0.9226 H       1  UNL1        0.0583
     71 H          15.1309    0.0849    0.8178 H       1  UNL1        0.0583
     72 H          17.3788   -0.6366   -0.8723 H       1  UNL1        0.0572
     73 H          17.3788   -0.4820    0.8682 H       1  UNL1        0.0572
     74 H          19.1005    1.2551    0.7139 H       1  UNL1        0.0444
     75 H          19.1005    1.1005   -1.0266 H       1  UNL1        0.0444
     76 H          19.7596   -1.0266    0.8756 H       1  UNL1        0.1183
     77 H          20.8561   -0.1666   -0.0369 H       1  UNL1        0.1183
     78 H           5.6108   10.1392   -0.9523 H       1  UNL1        0.0636
     79 H           8.3949   11.3815   -1.0626 H       1  UNL1        0.0618
     80 H           5.6108   12.6239   -1.1729 H       1  UNL1        0.0618
     81 H           7.7532   14.8179   -1.3678 H       1  UNL1        0.0624
     82 H           9.2453    3.0267   -0.3206 H       1  UNL1        0.1522
     83 H          11.4443    4.2538   -0.4295 H       1  UNL1        0.0636
     84 H          11.1324    7.2766   -0.6980 H       1  UNL1        0.0618
     85 H          13.6046    5.4962   -0.5399 H       1  UNL1        0.0618
     86 H          14.4409    8.4413   -0.8014 H       1  UNL1        0.0625
@<TRIPOS>BOND
     1     1     2    1
     2     2     3    1
     3     3     4    1
     4     4     5    1
     5     5     6    2
     6     6     7    1
     7     7     8    2
     8     8     9    1
     9     9    10    2
    10     9    11   am
    11    11    12    1
    12    12    13    1
    13    13    14   ar
    14    14    15   ar
    15    15    16    1
    16    16    17    1
    17    17    18    1
    18    18    19    1
    19    19    20    1
    20    20    21    1
    21    21    22    1
    22    22    23    1
    23    23    24    1
    24    24    25    1
    25    25    26    1
    26    26    27    1
    27    27    28    1
    28    28    29    1
    29    29    30    1
    30    15    31   ar
    31    31    32   ar
    32    13    32   ar
    33    11    33    1
    34    33    34   ar
    35    34    35   ar
    36    35    36   ar
    37    36    37   ar
    38    37    38   ar
    39    33    38   ar
    40     8    38    1
    41     7    39    1
    42    39    40    1
    43    40    41   ar
    44    41    42   ar
    45    42    43   ar
    46    43    44   ar
    47    44    45   ar
    48    40    45   ar
    49     6    45    1
    50     1    46    1
    51     1    47    1
    52     1    48    1
    53     2    49    1
    54     2    50    1
    55     3    51    1
    56     3    52    1
    57    12    53    1
    58    12    54    1
    59    14    55    1
    60    16    56    1
    61    16    57    1
    62    17    58    1
    63    17    59    1
    64    19    60    1
    65    19    61    1
    66    20    62    1
    67    20    63    1
    68    22    64    1
    69    22    65    1
    70    23    66    1
    71    23    67    1
    72    25    68    1
    73    25    69    1
    74    26    70    1
    75    26    71    1
    76    28    72    1
    77    28    73    1
    78    29    74    1
    79    29    75    1
    80    30    76    1
    81    30    77    1
    82    34    78    1
    83    35    79    1
    84    36    80    1
    85    37    81    1
    86    39    82    1
    87    41    83    1
    88    42    84    1
    89    43    85    1
    90    44    86    1
