@<TRIPOS>MOLECULE
*****
 49 48 0 0 0
SMALL
GASTEIGER

@<TRIPOS>ATOM
      1 N           0.9796   -0.0748   -0.0632 N.3     1  UNL1       -0.3299
      2 C           2.4496   -0.0748   -0.0632 C.3     1  UNL1       -0.0048
      3 C           2.9563    0.5235    1.2391 C.3     1  UNL1       -0.0171
      4 C           4.4763    0.5235    1.2391 C.3     1  UNL1        0.0489
      5 O           4.9496    1.0824    2.4556 O.3     1  UNL1       -0.3775
      6 C           6.3696    1.0824    2.4556 C.3     1  UNL1        0.0710
      7 C           6.8763    1.6806    3.7578 C.3     1  UNL1        0.0711
      8 O           8.2963    1.6806    3.7578 O.3     1  UNL1       -0.3752
      9 C           8.7696    2.2395    4.9744 C.3     1  UNL1        0.0711
     10 C          10.2896    2.2395    4.9744 C.3     1  UNL1        0.0710
     11 O          10.7629    2.7985    6.1909 O.3     1  UNL1       -0.3774
     12 C          12.1829    2.7985    6.1909 C.3     1  UNL1        0.0492
     13 C          12.6896    3.3967    7.4931 C.3     1  UNL1       -0.0138
     14 C          14.2096    3.3967    7.4931 C.3     1  UNL1        0.0137
     15 N          14.6996    3.9753    8.7525 N.am    1  UNL1       -0.3152
     16 C          16.1448    4.0875    8.9966 C.2     1  UNL1        0.2134
     17 O          16.9707    3.6842    8.1188 O.2     1  UNL1       -0.2758
     18 C          16.6515    4.6857   10.2988 C.3     1  UNL1        0.0303
     19 C          18.1715    4.6857   10.2988 C.3     1  UNL1        0.0110
     20 C          18.6782    5.2840   11.6010 C.2     1  UNL1        0.1208
     21 O          19.9277    5.3810   11.8121 O.2     1  UNL1       -0.3010
     22 H           0.6396   -0.4763   -0.9370 H       1  UNL1        0.1182
     23 H           0.6396    0.8827    0.0261 H       1  UNL1        0.1182
     24 H           2.8063    0.5085   -0.8862 H       1  UNL1        0.0423
     25 H           2.8063   -1.0793   -0.1568 H       1  UNL1        0.0423
     26 H           2.5996   -0.0598    2.0621 H       1  UNL1        0.0300
     27 H           2.5996    1.5279    1.3327 H       1  UNL1        0.0300
     28 H           4.8330    1.1068    0.4160 H       1  UNL1        0.0560
     29 H           4.8330   -0.4810    1.1454 H       1  UNL1        0.0560
     30 H           6.7263    1.6657    1.6325 H       1  UNL1        0.0583
     31 H           6.7263    0.0779    2.3620 H       1  UNL1        0.0583
     32 H           6.5196    1.0973    4.5809 H       1  UNL1        0.0583
     33 H           6.5196    2.6851    3.8514 H       1  UNL1        0.0583
     34 H           8.4129    1.6562    5.7974 H       1  UNL1        0.0583
     35 H           8.4129    3.2440    5.0680 H       1  UNL1        0.0583
     36 H          10.6463    2.8229    4.1513 H       1  UNL1        0.0583
     37 H          10.6463    1.2351    4.8807 H       1  UNL1        0.0583
     38 H          12.5396    3.3818    5.3678 H       1  UNL1        0.0560
     39 H          12.5396    1.7940    6.0973 H       1  UNL1        0.0560
     40 H          12.3329    2.8134    8.3162 H       1  UNL1        0.0302
     41 H          12.3329    4.4012    7.5867 H       1  UNL1        0.0302
     42 H          14.5663    3.9800    6.6701 H       1  UNL1        0.0463
     43 H          14.5663    2.3923    7.3995 H       1  UNL1        0.0463
     44 H          14.0598    4.2877    9.4325 H       1  UNL1        0.1487
     45 H          16.2948    4.1024   11.1219 H       1  UNL1        0.0362
     46 H          16.2948    5.6902   10.3924 H       1  UNL1        0.0362
     47 H          18.5282    5.2690    9.4757 H       1  UNL1        0.0343
     48 H          18.5282    3.6813   10.2052 H       1  UNL1        0.0343
     49 H          18.0075    5.6115   12.3138 H       1  UNL1        0.1026
@<TRIPOS>BOND
     1     1     2    1
     2     2     3    1
     3     3     4    1
     4     4     5    1
     5     5     6    1
     6     6     7    1
     7     7     8    1
     8     8     9    1
     9     9    10    1
    10    10    11    1
    11    11    12    1
    12    12    13    1
    13    13    14    1
    14    14    15    1
    15    15    16   am
    16    16    17    2
    17    16    18    1
    18    18    19    1
    19    19    20    1
    20    20    21    2
    21     1    22    1
    22     1    23    1
    23     2    24    1
    24     2    25    1
    25     3    26    1
    26     3    27    1
    27     4    28    1
    28     4    29    1
    29     6    30    1
    30     6    31    1
    31     7    32    1
    32     7    33    1
    33     9    34    1
    34     9    35    1
    35    10    36    1
    36    10    37    1
    37    12    38    1
    38    12    39    1
    39    13    40    1
    40    13    41    1
    41    14    42    1
    42    14    43    1
    43    15    44    1
    44    18    45    1
    45    18    46    1
    46    19    47    1
    47    19    48    1
    48    20    49    1
