@<TRIPOS>MOLECULE
*****
 24 23 0 0 0
SMALL
GASTEIGER

@<TRIPOS>ATOM
      1 O           1.0194    0.0687   -0.0700 O.3     1  UNL1       -0.3927
      2 C           2.4394    0.0687   -0.0700 C.3     1  UNL1        0.0676
      3 C           2.9461   -0.3554    1.2989 C.3     1  UNL1        0.0708
      4 O           4.3661   -0.3554    1.2989 O.3     1  UNL1       -0.3752
      5 C           4.8394   -0.7517    2.5777 C.3     1  UNL1        0.0711
      6 C           6.3594   -0.7517    2.5777 C.3     1  UNL1        0.0711
      7 O           6.8327   -1.1479    3.8565 O.3     1  UNL1       -0.3752
      8 C           8.2527   -1.1479    3.8565 C.3     1  UNL1        0.0708
      9 C           8.7594   -1.5720    5.2253 C.3     1  UNL1        0.0676
     10 O          10.1794   -1.5720    5.2253 O.3     1  UNL1       -0.3927
     11 H           0.6961    0.3394   -0.9436 H       1  UNL1        0.2095
     12 H           2.7961    1.0525   -0.2932 H       1  UNL1        0.0580
     13 H           2.7961   -0.6165   -0.8104 H       1  UNL1        0.0580
     14 H           2.5894   -1.3392    1.5221 H       1  UNL1        0.0583
     15 H           2.5894    0.3298    2.0392 H       1  UNL1        0.0583
     16 H           4.4827   -1.7355    2.8009 H       1  UNL1        0.0583
     17 H           4.4827   -0.0664    3.3180 H       1  UNL1        0.0583
     18 H           6.7161    0.2321    2.3544 H       1  UNL1        0.0583
     19 H           6.7161   -1.4369    1.8373 H       1  UNL1        0.0583
     20 H           8.6094   -0.1641    3.6332 H       1  UNL1        0.0583
     21 H           8.6094   -1.8331    3.1161 H       1  UNL1        0.0583
     22 H           8.4027   -2.5558    5.4486 H       1  UNL1        0.0580
     23 H           8.4027   -0.8868    5.9657 H       1  UNL1        0.0580
     24 H          10.5027   -2.1932    4.5542 H       1  UNL1        0.2095
@<TRIPOS>BOND
     1     1     2    1
     2     2     3    1
     3     3     4    1
     4     4     5    1
     5     5     6    1
     6     6     7    1
     7     7     8    1
     8     8     9    1
     9     9    10    1
    10     1    11    1
    11     2    12    1
    12     2    13    1
    13     3    14    1
    14     3    15    1
    15     5    16    1
    16     5    17    1
    17     6    18    1
    18     6    19    1
    19     8    20    1
    20     8    21    1
    21     9    22    1
    22     9    23    1
    23    10    24    1
