@<TRIPOS>MOLECULE
*****
 37 38 0 0 0
SMALL
GASTEIGER

@<TRIPOS>ATOM
      1 C           1.0863    0.0367   -0.0346 C.3     1  UNL1       -0.0127
      2 N           2.5563    0.0367   -0.0346 N.3     1  UNL1       -0.3029
      3 C           3.0463    1.3362   -0.5162 C.3     1  UNL1        0.0114
      4 C           4.5663    1.3362   -0.5162 C.3     1  UNL1        0.0117
      5 N           5.0563    2.6358   -0.9979 N.3     1  UNL1       -0.2996
      6 C           4.5663    3.7027   -0.1132 C.3     1  UNL1        0.0019
      7 C           3.0463    3.7027   -0.1132 C.3     1  UNL1       -0.0260
      8 C           2.5397    4.8058    0.8015 C.3     1  UNL1       -0.0364
      9 C           1.0197    4.8058    0.8015 C.3     1  UNL1       -0.0038
     10 N           0.5297    5.8727    1.6861 N.3     1  UNL1       -0.3160
     11 C          -0.9403    5.8727    1.6861 C.3     1  UNL1       -0.0038
     12 C           2.5397    2.3589    0.3848 C.3     1  UNL1       -0.0364
     13 C           6.5263    2.6358   -0.9979 C.3     1  UNL1        0.0117
     14 C           3.0463   -1.0302   -0.9193 C.3     1  UNL1        0.0114
     15 H           0.7297    0.8132    0.6093 H       1  UNL1        0.0391
     16 H           0.7297   -0.9093    0.3159 H       1  UNL1        0.0391
     17 H           0.7297    0.2060   -1.0291 H       1  UNL1        0.0391
     18 H           2.6897    2.1128    0.1277 H       1  UNL1        0.0439
     19 H           2.6897    1.5056   -1.5107 H       1  UNL1        0.0439
     20 H           4.9230    0.5597   -1.1602 H       1  UNL1        0.0439
     21 H           4.9230    1.1669    0.4782 H       1  UNL1        0.0439
     22 H           4.9230    4.6486   -0.4638 H       1  UNL1        0.0429
     23 H           4.9230    3.5333    0.8812 H       1  UNL1        0.0429
     24 H           2.6897    3.8720   -1.1077 H       1  UNL1        0.0314
     25 H           2.8963    5.7518    0.4509 H       1  UNL1        0.0281
     26 H           2.8963    4.6365    1.7960 H       1  UNL1        0.0281
     27 H           0.6630    3.8599    1.1520 H       1  UNL1        0.0424
     28 H           0.6630    4.9752   -0.1930 H       1  UNL1        0.0424
     29 H           0.8697    6.7744    1.3519 H       1  UNL1        0.1219
     30 H          -1.5066    6.4076    0.9526 H       1  UNL1        0.0424
     31 H          -1.7627    6.0064    2.3575 H       1  UNL1        0.0424
     32 H           2.2610    1.6299   -0.3472 H       1  UNL1        0.0281
     33 H           3.0333    1.6359    1.0000 H       1  UNL1        0.0281
     34 H           7.0939    2.8983   -0.1296 H       1  UNL1        0.0439
     35 H           7.3514    2.9777   -1.5871 H       1  UNL1        0.0439
     36 H           3.3180   -1.9619   -0.4687 H       1  UNL1        0.0439
     37 H           2.5498   -1.5033   -1.7406 H       1  UNL1        0.0439
@<TRIPOS>BOND
     1     1     2    1
     2     2     3    1
     3     3     4    1
     4     4     5    1
     5     5     6    1
     6     6     7    1
     7     7     8    1
     8     8     9    1
     9     9    10    1
    10    10    11    1
    11    11    12    1
    12     7    12    1
    13     5    13    1
    14    13    14    1
    15     2    14    1
    16     1    15    1
    17     1    16    1
    18     1    17    1
    19     3    18    1
    20     3    19    1
    21     4    20    1
    22     4    21    1
    23     6    22    1
    24     6    23    1
    25     7    24    1
    26     8    25    1
    27     8    26    1
    28     9    27    1
    29     9    28    1
    30    10    29    1
    31    11    30    1
    32    11    31    1
    33    12    32    1
    34    12    33    1
    35    13    34    1
    36    13    35    1
    37    14    36    1
    38    14    37    1
