@<TRIPOS>MOLECULE
*****
 26 25 0 0 0
SMALL
GASTEIGER

@<TRIPOS>ATOM
      1 C           0.9038    0.0076    0.0264 C.3     1  UNL1       -0.0653
      2 C           2.4238    0.0076    0.0264 C.3     1  UNL1       -0.0559
      3 C           2.9305    0.1226   -1.4021 C.3     1  UNL1       -0.0533
      4 C           4.4505    0.1226   -1.4021 C.3     1  UNL1       -0.0531
      5 C           4.9572    0.2376   -2.8305 C.3     1  UNL1       -0.0531
      6 C           6.4772    0.2376   -2.8305 C.3     1  UNL1       -0.0533
      7 C           6.9838    0.3526   -4.2590 C.3     1  UNL1       -0.0559
      8 C           8.5038    0.3526   -4.2590 C.3     1  UNL1       -0.0653
      9 H           0.5472   -0.0734    1.0320 H       1  UNL1        0.0230
     10 H           0.5472   -0.8228   -0.5465 H       1  UNL1        0.0230
     11 H           0.5472    0.9189   -0.4063 H       1  UNL1        0.0230
     12 H           2.7805   -0.9037    0.4591 H       1  UNL1        0.0263
     13 H           2.7805    0.8379    0.5993 H       1  UNL1        0.0263
     14 H           2.5738    1.0339   -1.8347 H       1  UNL1        0.0265
     15 H           2.5738   -0.7078   -1.9749 H       1  UNL1        0.0265
     16 H           4.8072   -0.7887   -0.9694 H       1  UNL1        0.0265
     17 H           4.8072    0.9529   -0.8292 H       1  UNL1        0.0265
     18 H           4.6005    1.1489   -3.2632 H       1  UNL1        0.0265
     19 H           4.6005   -0.5928   -3.4034 H       1  UNL1        0.0265
     20 H           6.8338   -0.6737   -2.3978 H       1  UNL1        0.0265
     21 H           6.8338    1.0679   -2.2576 H       1  UNL1        0.0265
     22 H           6.6272    1.2639   -4.6916 H       1  UNL1        0.0263
     23 H           6.6272   -0.4778   -4.8318 H       1  UNL1        0.0263
     24 H           8.8605    1.1829   -3.6861 H       1  UNL1        0.0230
     25 H           8.8605    0.4335   -5.2645 H       1  UNL1        0.0230
     26 H           8.8605   -0.5587   -3.8263 H       1  UNL1        0.0230
@<TRIPOS>BOND
     1     1     2    1
     2     2     3    1
     3     3     4    1
     4     4     5    1
     5     5     6    1
     6     6     7    1
     7     7     8    1
     8     1     9    1
     9     1    10    1
    10     1    11    1
    11     2    12    1
    12     2    13    1
    13     3    14    1
    14     3    15    1
    15     4    16    1
    16     4    17    1
    17     5    18    1
    18     5    19    1
    19     6    20    1
    20     6    21    1
    21     7    22    1
    22     7    23    1
    23     8    24    1
    24     8    25    1
    25     8    26    1
