@<TRIPOS>MOLECULE
*****
 46 46 0 0 0
SMALL
GASTEIGER

@<TRIPOS>ATOM
      1 C           1.0707   -0.0372   -0.0601 C.3     1  UNL1       -0.0416
      2 C           2.5907   -0.0372   -0.0601 C.3     1  UNL1        0.0449
      3 O           3.0640   -0.9681   -1.0223 O.3     1  UNL1       -0.3778
      4 C           4.4840   -0.9681   -1.0223 C.3     1  UNL1        0.0710
      5 C           4.9907   -1.9646   -2.0522 C.3     1  UNL1        0.0711
      6 O           6.4107   -1.9646   -2.0522 O.3     1  UNL1       -0.3752
      7 C           6.8840   -2.8955   -3.0144 C.3     1  UNL1        0.0711
      8 C           8.4040   -2.8955   -3.0144 C.3     1  UNL1        0.0711
      9 O           8.8774   -3.8264   -3.9766 O.3     1  UNL1       -0.3752
     10 C          10.2974   -3.8264   -3.9766 C.3     1  UNL1        0.0711
     11 C          10.8040   -4.8229   -5.0065 C.3     1  UNL1        0.0711
     12 O          12.2240   -4.8229   -5.0065 O.3     1  UNL1       -0.3757
     13 C          12.6973   -5.7538   -5.9686 C.3     1  UNL1        0.0673
     14 C          14.2173   -5.7538   -5.9686 C.3     1  UNL1        0.0665
     15 N          14.7073   -6.7175   -6.9647 N.ar    1  UNL1       -0.2488
     16 C          16.0767   -6.8945   -7.1476 C.ar    1  UNL1        0.0580
     17 C          16.5568   -7.8386   -8.1235 C.ar    1  UNL1        0.1666
     18 C          15.5690   -8.6419   -8.9538 C.2     1  UNL1        0.2632
     19 N          16.0590   -9.6056   -9.9498 N.am    1  UNL1       -0.3240
     20 O          14.3195   -8.4805   -8.7869 O.2     1  UNL1       -0.2686
     21 N          17.9261   -8.0156   -8.3064 N.ar    1  UNL1       -0.1248
     22 N          13.8330   -7.4286   -7.6997 N.ar    1  UNL1       -0.0649
     23 H           0.7140    0.6642    0.6649 H       1  UNL1        0.0252
     24 H           0.7140   -1.0158    0.1848 H       1  UNL1        0.0252
     25 H           0.7140    0.2399   -1.0301 H       1  UNL1        0.0252
     26 H           2.9474   -0.3144    0.9099 H       1  UNL1        0.0557
     27 H           2.9474    0.9414   -0.3051 H       1  UNL1        0.0557
     28 H           4.8407   -1.2453   -0.0523 H       1  UNL1        0.0583
     29 H           4.8407    0.0105   -1.2673 H       1  UNL1        0.0583
     30 H           4.6340   -1.6874   -3.0222 H       1  UNL1        0.0583
     31 H           4.6340   -2.9432   -1.8072 H       1  UNL1        0.0583
     32 H           6.5274   -2.6184   -3.9844 H       1  UNL1        0.0583
     33 H           6.5274   -3.8741   -2.7694 H       1  UNL1        0.0583
     34 H           8.7607   -3.1727   -2.0444 H       1  UNL1        0.0583
     35 H           8.7607   -1.9169   -3.2594 H       1  UNL1        0.0583
     36 H          10.6540   -4.1036   -3.0066 H       1  UNL1        0.0583
     37 H          10.6540   -2.8478   -4.2215 H       1  UNL1        0.0583
     38 H          10.4473   -4.5457   -5.9765 H       1  UNL1        0.0583
     39 H          10.4473   -5.8015   -4.7615 H       1  UNL1        0.0583
     40 H          12.3407   -5.4766   -6.9386 H       1  UNL1        0.0578
     41 H          12.3407   -6.7324   -5.7237 H       1  UNL1        0.0578
     42 H          14.5740   -6.0309   -4.9987 H       1  UNL1        0.0532
     43 H          14.5740   -4.7752   -6.2136 H       1  UNL1        0.0532
     44 H          16.7473   -6.3490   -6.5839 H       1  UNL1        0.0850
     45 H          17.0269   -9.7307  -10.0791 H       1  UNL1        0.1453
     46 H          15.4193  -10.1260  -10.4876 H       1  UNL1        0.1453
@<TRIPOS>BOND
     1     1     2    1
     2     2     3    1
     3     3     4    1
     4     4     5    1
     5     5     6    1
     6     6     7    1
     7     7     8    1
     8     8     9    1
     9     9    10    1
    10    10    11    1
    11    11    12    1
    12    12    13    1
    13    13    14    1
    14    14    15    1
    15    15    16   ar
    16    16    17   ar
    17    17    18    1
    18    18    19   am
    19    18    20    2
    20    17    21   ar
    21    21    22   ar
    22    15    22   ar
    23     1    23    1
    24     1    24    1
    25     1    25    1
    26     2    26    1
    27     2    27    1
    28     4    28    1
    29     4    29    1
    30     5    30    1
    31     5    31    1
    32     7    32    1
    33     7    33    1
    34     8    34    1
    35     8    35    1
    36    10    36    1
    37    10    37    1
    38    11    38    1
    39    11    39    1
    40    13    40    1
    41    13    41    1
    42    14    42    1
    43    14    43    1
    44    16    44    1
    45    19    45    1
    46    19    46    1
