@<TRIPOS>MOLECULE
*****
 16 15 0 0 0
SMALL
GASTEIGER

@<TRIPOS>ATOM
      1 C           0.9394    0.0616   -0.0503 C.3     1  UNL1       -0.0416
      2 C           2.4594    0.0616   -0.0503 C.3     1  UNL1        0.0449
      3 O           2.9327    1.0421   -0.9619 O.3     1  UNL1       -0.3778
      4 C           4.3527    1.0421   -0.9619 C.3     1  UNL1        0.0707
      5 C           4.8593    2.0916   -1.9376 C.3     1  UNL1        0.0676
      6 O           6.2793    2.0916   -1.9376 O.3     1  UNL1       -0.3927
      7 H           0.5827   -0.6773    0.6366 H       1  UNL1        0.0252
      8 H           0.5827   -0.1639   -1.0336 H       1  UNL1        0.0252
      9 H           0.5827    1.0259    0.2461 H       1  UNL1        0.0252
     10 H           2.8160   -0.9027   -0.3467 H       1  UNL1        0.0557
     11 H           2.8160    0.2870    0.9330 H       1  UNL1        0.0557
     12 H           4.7093    0.0778   -1.2583 H       1  UNL1        0.0583
     13 H           4.7094    1.2675    0.0214 H       1  UNL1        0.0583
     14 H           4.5027    3.0559   -1.6412 H       1  UNL1        0.0580
     15 H           4.5027    1.8662   -2.9209 H       1  UNL1        0.0580
     16 H           6.6027    2.2960   -1.0462 H       1  UNL1        0.2095
@<TRIPOS>BOND
     1     1     2    1
     2     2     3    1
     3     3     4    1
     4     4     5    1
     5     5     6    1
     6     1     7    1
     7     1     8    1
     8     1     9    1
     9     2    10    1
    10     2    11    1
    11     4    12    1
    12     4    13    1
    13     5    14    1
    14     5    15    1
    15     6    16    1
