@<TRIPOS>MOLECULE
*****
 19 18 0 0 0
SMALL
GASTEIGER

@<TRIPOS>ATOM
      1 C           0.9401    0.0567    0.0565 C.3     1  UNL1       -0.0653
      2 C           2.4601    0.0567    0.0565 C.3     1  UNL1       -0.0559
      3 C           2.9668   -1.3516   -0.2087 C.3     1  UNL1       -0.0529
      4 C           4.4868   -1.3516   -0.2087 C.3     1  UNL1       -0.0466
      5 C           4.9934   -2.7599   -0.4740 C.3     1  UNL1        0.0028
      6 C           6.5134   -2.7599   -0.4740 C.2     1  UNL1        0.1203
      7 O           7.1489   -3.8415   -0.6777 O.2     1  UNL1       -0.3010
      8 H           0.5834    1.0481    0.2432 H       1  UNL1        0.0230
      9 H           0.5834   -0.6007    0.8217 H       1  UNL1        0.0230
     10 H           0.5834   -0.2773   -0.8954 H       1  UNL1        0.0230
     11 H           2.8168    0.3907    1.0084 H       1  UNL1        0.0263
     12 H           2.8168    0.7141   -0.7087 H       1  UNL1        0.0263
     13 H           2.6101   -1.6856   -1.1606 H       1  UNL1        0.0265
     14 H           2.6101   -2.0090    0.5565 H       1  UNL1        0.0265
     15 H           4.8434   -1.0176    0.7432 H       1  UNL1        0.0269
     16 H           4.8434   -0.6942   -0.9739 H       1  UNL1        0.0269
     17 H           4.6368   -3.0939   -1.4259 H       1  UNL1        0.0339
     18 H           4.6368   -3.4173    0.2912 H       1  UNL1        0.0339
     19 H           7.0294   -1.8816   -0.3086 H       1  UNL1        0.1026
@<TRIPOS>BOND
     1     1     2    1
     2     2     3    1
     3     3     4    1
     4     4     5    1
     5     5     6    1
     6     6     7    2
     7     1     8    1
     8     1     9    1
     9     1    10    1
    10     2    11    1
    11     2    12    1
    12     3    13    1
    13     3    14    1
    14     4    15    1
    15     4    16    1
    16     5    17    1
    17     5    18    1
    18     6    19    1
