@<TRIPOS>MOLECULE
*****
 25 24 0 0 0
SMALL
GASTEIGER

@<TRIPOS>ATOM
      1 C           1.0580   -0.0814   -0.0016 C.1     1  UNL1       -0.1192
      2 C           2.3619   -0.0814   -0.0016 C.1     1  UNL1       -0.1056
      3 C           3.8819   -0.0814   -0.0016 C.3     1  UNL1        0.0089
      4 C           4.3885   -0.0909    1.4315 C.3     1  UNL1       -0.0422
      5 C           5.9085   -0.0909    1.4315 C.3     1  UNL1       -0.0522
      6 C           6.4152   -0.1003    2.8645 C.3     1  UNL1       -0.0530
      7 C           7.9352   -0.1003    2.8645 C.3     1  UNL1       -0.0533
      8 C           8.4418   -0.1097    4.2976 C.3     1  UNL1       -0.0559
      9 C           9.9618   -0.1097    4.2976 C.3     1  UNL1       -0.0653
     10 H           0.0640   -0.0814   -0.0016 H       1  UNL1        0.1228
     11 H           4.2385    0.7955   -0.5002 H       1  UNL1        0.0397
     12 H           4.2385   -0.9518   -0.5117 H       1  UNL1        0.0397
     13 H           4.0318   -0.9678    1.9301 H       1  UNL1        0.0274
     14 H           4.0318    0.7794    1.9416 H       1  UNL1        0.0274
     15 H           6.2652    0.7861    0.9328 H       1  UNL1        0.0266
     16 H           6.2652   -0.9612    0.9213 H       1  UNL1        0.0266
     17 H           6.0585   -0.9772    3.3632 H       1  UNL1        0.0265
     18 H           6.0585    0.7700    3.3747 H       1  UNL1        0.0265
     19 H           8.2918    0.7767    2.3659 H       1  UNL1        0.0265
     20 H           8.2918   -0.9706    2.3544 H       1  UNL1        0.0265
     21 H           8.0852   -0.9867    4.7962 H       1  UNL1        0.0263
     22 H           8.0852    0.7606    4.8077 H       1  UNL1        0.0263
     23 H          10.3185   -0.9800    3.7874 H       1  UNL1        0.0230
     24 H          10.3185   -0.1164    5.3063 H       1  UNL1        0.0230
     25 H          10.3185    0.7672    3.7989 H       1  UNL1        0.0230
@<TRIPOS>BOND
     1     1     2    3
     2     2     3    1
     3     3     4    1
     4     4     5    1
     5     5     6    1
     6     6     7    1
     7     7     8    1
     8     8     9    1
     9     1    10    1
    10     3    11    1
    11     3    12    1
    12     4    13    1
    13     4    14    1
    14     5    15    1
    15     5    16    1
    16     6    17    1
    17     6    18    1
    18     7    19    1
    19     7    20    1
    20     8    21    1
    21     8    22    1
    22     9    23    1
    23     9    24    1
    24     9    25    1
