@<TRIPOS>MOLECULE
*****
 54 54 0 0 0
SMALL
GASTEIGER

@<TRIPOS>ATOM
      1 N           1.0723    0.0629    0.0285 N.3     1  UNL1       -0.3279
      2 C           2.5423    0.0629    0.0285 C.3     1  UNL1        0.0166
      3 C           3.0490    0.2803   -1.3880 C.3     1  UNL1        0.0600
      4 O           4.4690    0.2803   -1.3880 O.3     1  UNL1       -0.3763
      5 C           4.9423    0.4834   -2.7113 C.3     1  UNL1        0.0711
      6 C           6.4623    0.4834   -2.7113 C.3     1  UNL1        0.0711
      7 O           6.9357    0.6864   -4.0346 O.3     1  UNL1       -0.3752
      8 C           8.3557    0.6864   -4.0346 C.3     1  UNL1        0.0711
      9 C           8.8623    0.9038   -5.4511 C.3     1  UNL1        0.0711
     10 O          10.2823    0.9038   -5.4511 O.3     1  UNL1       -0.3752
     11 C          10.7556    1.1069   -6.7744 C.3     1  UNL1        0.0711
     12 C          12.2756    1.1069   -6.7744 C.3     1  UNL1        0.0711
     13 O          12.7490    1.3100   -8.0977 O.3     1  UNL1       -0.3757
     14 C          14.1690    1.3100   -8.0977 C.3     1  UNL1        0.0673
     15 C          14.6756    1.5274   -9.5142 C.3     1  UNL1        0.0665
     16 N          16.1456    1.5274   -9.5142 N.ar    1  UNL1       -0.2492
     17 C          16.8420    1.7104  -10.7064 C.ar    1  UNL1        0.0487
     18 C          18.2822    1.7104  -10.7064 C.ar    1  UNL1        0.0829
     19 C          19.0422    1.5107   -9.4053 C.3     1  UNL1       -0.0051
     20 C          18.0545    1.3354   -8.2633 C.3     1  UNL1       -0.0242
     21 C          18.8145    1.1357   -6.9622 C.3     1  UNL1        0.0446
     22 O          17.8917    0.9720   -5.8954 O.3     1  UNL1       -0.3950
     23 N          18.9787    1.8933  -11.8987 N.ar    1  UNL1       -0.1345
     24 N          16.8184    1.3506   -8.3624 N.ar    1  UNL1       -0.0654
     25 H           0.7323   -0.0830    0.9790 H       1  UNL1        0.1183
     26 H           0.7323   -0.6874   -0.5731 H       1  UNL1        0.1183
     27 H           2.8990   -0.8772    0.3945 H       1  UNL1        0.0444
     28 H           2.8990    0.8499    0.6596 H       1  UNL1        0.0444
     29 H           2.6923    1.2203   -1.7540 H       1  UNL1        0.0572
     30 H           2.6923   -0.5068   -2.0191 H       1  UNL1        0.0572
     31 H           4.5857    1.4234   -3.0773 H       1  UNL1        0.0583
     32 H           4.5857   -0.3037   -3.3424 H       1  UNL1        0.0583
     33 H           6.8190   -0.4567   -2.3452 H       1  UNL1        0.0583
     34 H           6.8190    1.2704   -2.0802 H       1  UNL1        0.0583
     35 H           8.7123   -0.2536   -3.6685 H       1  UNL1        0.0583
     36 H           8.7123    1.4735   -3.4035 H       1  UNL1        0.0583
     37 H           8.5056    1.8439   -5.8171 H       1  UNL1        0.0583
     38 H           8.5056    0.1168   -6.0822 H       1  UNL1        0.0583
     39 H          10.3990    2.0470   -7.1404 H       1  UNL1        0.0583
     40 H          10.3990    0.3199   -7.4055 H       1  UNL1        0.0583
     41 H          12.6323    0.1669   -6.4083 H       1  UNL1        0.0583
     42 H          12.6323    1.8939   -6.1433 H       1  UNL1        0.0583
     43 H          14.5256    0.3699   -7.7316 H       1  UNL1        0.0578
     44 H          14.5256    2.0970   -7.4666 H       1  UNL1        0.0578
     45 H          14.3190    2.4674   -9.8802 H       1  UNL1        0.0532
     46 H          14.3190    0.7404  -10.1452 H       1  UNL1        0.0532
     47 H          16.3260    1.8459  -11.5898 H       1  UNL1        0.0845
     48 H          19.6574    2.3656   -9.2167 H       1  UNL1        0.0330
     49 H          19.6574    0.6385   -9.4818 H       1  UNL1        0.0330
     50 H          17.4393    0.4805   -8.4519 H       1  UNL1        0.0291
     51 H          17.4393    2.2076   -8.1868 H       1  UNL1        0.0291
     52 H          19.4297    1.9907   -6.7737 H       1  UNL1        0.0557
     53 H          19.4297    0.2636   -7.0387 H       1  UNL1        0.0557
     54 H          17.3341    1.7626   -5.8261 H       1  UNL1        0.2094
@<TRIPOS>BOND
     1     1     2    1
     2     2     3    1
     3     3     4    1
     4     4     5    1
     5     5     6    1
     6     6     7    1
     7     7     8    1
     8     8     9    1
     9     9    10    1
    10    10    11    1
    11    11    12    1
    12    12    13    1
    13    13    14    1
    14    14    15    1
    15    15    16    1
    16    16    17   ar
    17    17    18   ar
    18    18    19    1
    19    19    20    1
    20    20    21    1
    21    21    22    1
    22    18    23   ar
    23    23    24   ar
    24    16    24   ar
    25     1    25    1
    26     1    26    1
    27     2    27    1
    28     2    28    1
    29     3    29    1
    30     3    30    1
    31     5    31    1
    32     5    32    1
    33     6    33    1
    34     6    34    1
    35     8    35    1
    36     8    36    1
    37     9    37    1
    38     9    38    1
    39    11    39    1
    40    11    40    1
    41    12    41    1
    42    12    42    1
    43    14    43    1
    44    14    44    1
    45    15    45    1
    46    15    46    1
    47    17    47    1
    48    19    48    1
    49    19    49    1
    50    20    50    1
    51    20    51    1
    52    21    52    1
    53    21    53    1
    54    22    54    1
