@<TRIPOS>MOLECULE
*****
 25 25 0 0 0
SMALL
GASTEIGER

@<TRIPOS>ATOM
      1 C           0.9581   -0.0860    0.0290 C.3     1  UNL1        0.0788
      2 O           2.3781   -0.0860    0.0290 O.3     1  UNL1       -0.4950
      3 C           3.0881    1.0792    0.4221 C.ar    1  UNL1        0.1221
      4 C           4.5283    1.0792    0.4221 C.ar    1  UNL1        0.0007
      5 C           5.2484    2.2610    0.8208 C.ar    1  UNL1        0.0283
      6 N           4.5134    3.4672    1.2278 N.pl3   1  UNL1       -0.3579
      7 C           6.6886    2.2610    0.8208 C.ar    1  UNL1       -0.0376
      8 C           7.4087    3.4428    1.2196 C.ar    1  UNL1       -0.0400
      9 C           8.9287    3.4428    1.2196 C.3     1  UNL1       -0.0042
     10 C           9.4354    4.8007    1.6777 C.3     1  UNL1        0.0482
     11 O          10.8554    4.8007    1.6777 O.3     1  UNL1       -0.3947
     12 C           2.3680    2.2610    0.8208 C.ar    1  UNL1       -0.0166
     13 H           0.6014   -1.0419   -0.2935 H       1  UNL1        0.0660
     14 H           0.6014    0.6712   -0.6376 H       1  UNL1        0.0660
     15 H           0.6014    0.1126    1.0180 H       1  UNL1        0.0660
     16 H           5.0443    0.2323    0.1364 H       1  UNL1        0.0672
     17 H           3.5289    3.4672    1.2278 H       1  UNL1        0.1423
     18 H           5.0057    4.2751    1.5004 H       1  UNL1        0.1423
     19 H           7.2046    1.4141    0.5351 H       1  UNL1        0.0639
     20 H           9.2854    3.2441    0.2305 H       1  UNL1        0.0335
     21 H           9.2854    2.6856    1.8861 H       1  UNL1        0.0335
     22 H           9.0787    4.9993    2.6667 H       1  UNL1        0.0560
     23 H           9.0787    5.5579    1.0111 H       1  UNL1        0.0560
     24 H          11.1787    4.1142    2.2819 H       1  UNL1        0.2094
     25 H           1.4184    2.6439    0.9500 H       1  UNL1        0.0657
@<TRIPOS>BOND
     1     1     2    1
     2     2     3    1
     3     3     4   ar
     4     4     5   ar
     5     5     6    1
     6     5     7   ar
     7     7     8   ar
     8     8     9    1
     9     9    10    1
    10    10    11    1
    11     8    12   ar
    12     3    12   ar
    13     1    13    1
    14     1    14    1
    15     1    15    1
    16     4    16    1
    17     6    17    1
    18     6    18    1
    19     7    19    1
    20     9    20    1
    21     9    21    1
    22    10    22    1
    23    10    23    1
    24    11    24    1
    25    12    25    1
