@<TRIPOS>MOLECULE
*****
 37 39 0 0 0
SMALL
GASTEIGER

@<TRIPOS>ATOM
      1 O           1.0602   -0.0591    0.0538 O.2     1  UNL1       -0.2700
      2 C           2.3311   -0.0591    0.0538 C.2     1  UNL1        0.2467
      3 C           3.0911   -0.8948   -0.9633 C.ar    1  UNL1        0.0369
      4 C           2.3710   -1.6866   -1.9269 C.ar    1  UNL1       -0.0496
      5 C           3.0911   -2.4784   -2.8906 C.ar    1  UNL1       -0.0610
      6 C           2.3710   -3.2703   -3.8543 C.ar    1  UNL1       -0.0617
      7 C           3.0911   -4.0621   -4.8179 C.ar    1  UNL1       -0.0610
      8 C           4.5313   -0.8948   -0.9633 C.ar    1  UNL1       -0.0496
      9 N           3.0661    0.7492    1.0373 N.am    1  UNL1       -0.2951
     10 C           4.5361    0.7492    1.0373 C.3     1  UNL1        0.0278
     11 C           5.0427    1.6590    2.1446 C.3     1  UNL1        0.0151
     12 N           6.5127    1.6590    2.1446 N.3     1  UNL1       -0.2940
     13 C           7.0027    2.1464    0.8472 C.3     1  UNL1        0.0355
     14 C           6.4961    1.2366   -0.2600 C.3     1  UNL1        0.0128
     15 N           6.9861    1.7240   -1.5574 N.3     1  UNL1       -0.3129
     16 C           8.5227    2.1464    0.8472 C.3     1  UNL1        0.0128
     17 C           7.0027    2.5388    3.2154 C.3     1  UNL1        0.0151
     18 C           2.3311    1.5574    2.0209 C.3     1  UNL1        0.0278
     19 H           1.3390   -1.6866   -1.9269 H       1  UNL1        0.0625
     20 H           4.1231   -2.4784   -2.8906 H       1  UNL1        0.0618
     21 H           1.3390   -3.2703   -3.8543 H       1  UNL1        0.0618
     22 H           3.2159   -4.7125   -5.6094 H       1  UNL1        0.0618
     23 H           5.3560   -0.5009   -0.4840 H       1  UNL1        0.0625
     24 H           4.8928    1.1039    0.0930 H       1  UNL1        0.0477
     25 H           4.8928   -0.2461    1.2023 H       1  UNL1        0.0477
     26 H           4.6861    1.3042    3.0889 H       1  UNL1        0.0442
     27 H           4.6861    2.6542    1.9796 H       1  UNL1        0.0442
     28 H           6.6461    3.1416    0.6822 H       1  UNL1        0.0488
     29 H           5.4261    1.2366   -0.2600 H       1  UNL1        0.0440
     30 H           6.8527    0.2413   -0.0951 H       1  UNL1        0.0440
     31 H           6.5259    2.5107   -2.0154 H       1  UNL1        0.1220
     32 H           9.0635    3.0585    0.9901 H       1  UNL1        0.0440
     33 H           9.2916    1.6179    1.3711 H       1  UNL1        0.0440
     34 H           7.4440    3.4883    2.9948 H       1  UNL1        0.0442
     35 H           7.6376    2.4736    4.0742 H       1  UNL1        0.0442
     36 H           1.7538    2.3719    1.6361 H       1  UNL1        0.0477
     37 H           1.5649    1.2113    2.6829 H       1  UNL1        0.0477
@<TRIPOS>BOND
     1     1     2    2
     2     2     3    1
     3     3     4   ar
     4     4     5   ar
     5     5     6   ar
     6     6     7   ar
     7     7     8   ar
     8     3     8   ar
     9     2     9   am
    10     9    10    1
    11    10    11    1
    12    11    12    1
    13    12    13    1
    14    13    14    1
    15    14    15    1
    16    15    16    1
    17    13    16    1
    18    12    17    1
    19    17    18    1
    20     9    18    1
    21     4    19    1
    22     5    20    1
    23     6    21    1
    24     7    22    1
    25     8    23    1
    26    10    24    1
    27    10    25    1
    28    11    26    1
    29    11    27    1
    30    13    28    1
    31    14    29    1
    32    14    30    1
    33    15    31    1
    34    16    32    1
    35    16    33    1
    36    17    34    1
    37    17    35    1
    38    18    36    1
    39    18    37    1
