@<TRIPOS>MOLECULE
*****
 27 26 0 0 0
SMALL
GASTEIGER

@<TRIPOS>ATOM
      1 C           1.0347   -0.0606   -0.0716 C.3     1  UNL1       -0.0653
      2 C           2.5547   -0.0606   -0.0716 C.3     1  UNL1       -0.0559
      3 C           3.0614    1.0577    0.8246 C.3     1  UNL1       -0.0533
      4 C           4.5814    1.0577    0.8246 C.3     1  UNL1       -0.0531
      5 C           5.0880    2.1760    1.7207 C.3     1  UNL1       -0.0526
      6 C           6.6080    2.1760    1.7207 C.3     1  UNL1       -0.0448
      7 C           7.1147    3.2944    2.6168 C.3     1  UNL1        0.0237
      8 C           8.6347    3.2944    2.6168 C.2     1  UNL1        0.2105
      9 N           9.3697    2.3009    1.8208 N.am    1  UNL1       -0.3293
     10 O           9.2701    4.1532    3.3051 O.2     1  UNL1       -0.2760
     11 H           0.6780   -0.8478   -0.7024 H       1  UNL1        0.0230
     12 H           0.6780    0.8793   -0.4379 H       1  UNL1        0.0230
     13 H           0.6780   -0.2133    0.9256 H       1  UNL1        0.0230
     14 H           2.9114    0.0921   -1.0688 H       1  UNL1        0.0263
     15 H           2.9114   -1.0005    0.2948 H       1  UNL1        0.0263
     16 H           2.7047    0.9050    1.8217 H       1  UNL1        0.0265
     17 H           2.7047    1.9977    0.4582 H       1  UNL1        0.0265
     18 H           4.9380    1.2104   -0.1726 H       1  UNL1        0.0265
     19 H           4.9380    0.1178    1.1909 H       1  UNL1        0.0265
     20 H           4.7314    2.0233    2.7179 H       1  UNL1        0.0265
     21 H           4.7314    3.1160    1.3544 H       1  UNL1        0.0265
     22 H           6.9647    2.3287    0.7235 H       1  UNL1        0.0270
     23 H           6.9647    1.2361    2.0870 H       1  UNL1        0.0270
     24 H           6.7580    3.1417    3.6140 H       1  UNL1        0.0358
     25 H           6.7580    4.2343    2.2505 H       1  UNL1        0.0358
     26 H           8.8774    1.6356    1.2876 H       1  UNL1        0.1449
     27 H          10.3542    2.3009    1.8208 H       1  UNL1        0.1449
@<TRIPOS>BOND
     1     1     2    1
     2     2     3    1
     3     3     4    1
     4     4     5    1
     5     5     6    1
     6     6     7    1
     7     7     8    1
     8     8     9   am
     9     8    10    2
    10     1    11    1
    11     1    12    1
    12     1    13    1
    13     2    14    1
    14     2    15    1
    15     3    16    1
    16     3    17    1
    17     4    18    1
    18     4    19    1
    19     5    20    1
    20     5    21    1
    21     6    22    1
    22     6    23    1
    23     7    24    1
    24     7    25    1
    25     9    26    1
    26     9    27    1
