@<TRIPOS>MOLECULE
*****
 46 46 0 0 0
SMALL
GASTEIGER

@<TRIPOS>ATOM
      1 C           1.0468   -0.0430   -0.0772 C.3     1  UNL1       -0.0649
      2 C           2.5668   -0.0430   -0.0772 C.3     1  UNL1       -0.0504
      3 C           3.0735    1.0137   -1.0453 C.3     1  UNL1       -0.0074
      4 C           4.5935    1.0137   -1.0453 C.ar    1  UNL1        0.0828
      5 C           5.3136    1.9334   -1.8878 C.ar    1  UNL1        0.0487
      6 N           6.7064    1.9334   -1.8878 N.ar    1  UNL1       -0.2492
      7 C           7.4414    0.9947   -1.0278 C.3     1  UNL1        0.0665
      8 C           6.4537    0.1428   -0.2474 C.3     1  UNL1        0.0673
      9 O           7.1637   -0.7639    0.5833 O.3     1  UNL1       -0.3757
     10 C           6.2409   -1.5598    1.3124 C.3     1  UNL1        0.0711
     11 C           7.0009   -2.5304    2.2016 C.3     1  UNL1        0.0711
     12 O           6.0782   -3.3262    2.9307 O.3     1  UNL1       -0.3752
     13 C           6.7882   -4.2330    3.7614 C.3     1  UNL1        0.0711
     14 C           5.8004   -5.0848    4.5419 C.3     1  UNL1        0.0711
     15 O           6.5104   -5.9916    5.3726 O.3     1  UNL1       -0.3763
     16 C           5.5877   -6.7874    6.1017 C.3     1  UNL1        0.0600
     17 C           6.3477   -7.7580    6.9909 C.3     1  UNL1        0.0166
     18 N           5.3924   -8.5819    7.7457 N.3     1  UNL1       -0.3279
     19 N           7.3792    2.7925   -2.6749 N.ar    1  UNL1       -0.0654
     20 N           5.2899    0.1243   -0.2304 N.ar    1  UNL1       -0.1345
     21 H           0.6902   -0.7868    0.6043 H       1  UNL1        0.0230
     22 H           0.6902   -0.2612   -1.0621 H       1  UNL1        0.0230
     23 H           0.6902    0.9191    0.2262 H       1  UNL1        0.0230
     24 H           2.9235   -1.0050   -0.3807 H       1  UNL1        0.0266
     25 H           2.9235    0.1753    0.9077 H       1  UNL1        0.0266
     26 H           2.7168    1.9758   -0.7418 H       1  UNL1        0.0329
     27 H           2.7168    0.7955   -2.0302 H       1  UNL1        0.0329
     28 H           4.7976    2.5924   -2.4915 H       1  UNL1        0.0845
     29 H           8.0566    1.5431   -0.3454 H       1  UNL1        0.0532
     30 H           8.0566    0.3627   -1.6337 H       1  UNL1        0.0532
     31 H           5.8385   -0.4055   -0.9299 H       1  UNL1        0.0578
     32 H           5.8385    0.7748    0.3585 H       1  UNL1        0.0578
     33 H           5.6258   -2.1081    0.6299 H       1  UNL1        0.0583
     34 H           5.6258   -0.9278    1.9183 H       1  UNL1        0.0583
     35 H           7.6161   -1.9820    2.8841 H       1  UNL1        0.0583
     36 H           7.6161   -3.1623    1.5957 H       1  UNL1        0.0583
     37 H           7.4033   -3.6846    4.4439 H       1  UNL1        0.0583
     38 H           7.4033   -4.8649    3.1555 H       1  UNL1        0.0583
     39 H           5.1853   -5.6332    3.8594 H       1  UNL1        0.0583
     40 H           5.1853   -4.4529    5.1478 H       1  UNL1        0.0583
     41 H           4.9725   -7.3358    5.4192 H       1  UNL1        0.0572
     42 H           4.9725   -6.1554    6.7076 H       1  UNL1        0.0572
     43 H           6.9628   -7.2097    7.6734 H       1  UNL1        0.0444
     44 H           6.9628   -8.3900    6.3850 H       1  UNL1        0.0444
     45 H           4.8060   -7.9794    8.3232 H       1  UNL1        0.1183
     46 H           5.9024   -9.2332    8.3424 H       1  UNL1        0.1183
@<TRIPOS>BOND
     1     1     2    1
     2     2     3    1
     3     3     4    1
     4     4     5   ar
     5     5     6   ar
     6     6     7    1
     7     7     8    1
     8     8     9    1
     9     9    10    1
    10    10    11    1
    11    11    12    1
    12    12    13    1
    13    13    14    1
    14    14    15    1
    15    15    16    1
    16    16    17    1
    17    17    18    1
    18     6    19   ar
    19    19    20   ar
    20     4    20   ar
    21     1    21    1
    22     1    22    1
    23     1    23    1
    24     2    24    1
    25     2    25    1
    26     3    26    1
    27     3    27    1
    28     5    28    1
    29     7    29    1
    30     7    30    1
    31     8    31    1
    32     8    32    1
    33    10    33    1
    34    10    34    1
    35    11    35    1
    36    11    36    1
    37    13    37    1
    38    13    38    1
    39    14    39    1
    40    14    40    1
    41    16    41    1
    42    16    42    1
    43    17    43    1
    44    17    44    1
    45    18    45    1
    46    18    46    1
