@<TRIPOS>MOLECULE
*****
 35 36 0 0 0
SMALL
GASTEIGER

@<TRIPOS>ATOM
      1 C           1.0632   -0.0352    0.0691 C.3     1  UNL1       -0.0641
      2 C           2.5832   -0.0352    0.0691 C.3     1  UNL1       -0.0431
      3 C           3.0898    0.2422    1.4750 C.3     1  UNL1       -0.0012
      4 N           4.5598    0.2422    1.4750 N.3     1  UNL1       -0.2994
      5 C           5.0498    0.5105    2.8347 C.3     1  UNL1        0.0148
      6 C           6.5698    0.5105    2.8347 C.3     1  UNL1        0.0278
      7 N           7.0598    0.7788    4.1944 N.am    1  UNL1       -0.2950
      8 C           6.1046    0.9951    5.2906 C.2     1  UNL1        0.2496
      9 O           6.5282    1.2271    6.4662 O.2     1  UNL1       -0.2699
     10 C           4.6101    0.9414    5.0181 C.ar    1  UNL1        0.0730
     11 C           3.6743    1.1533    6.0921 C.ar    1  UNL1        0.0429
     12 N           2.3049    1.1040    5.8424 N.ar    1  UNL1       -0.2430
     13 C           1.3998    1.3090    6.8810 C.ar    1  UNL1        0.1159
     14 N           0.0304    1.2597    6.6313 N.ar    1  UNL1       -0.2430
     15 C           4.1301    0.6785    3.6860 C.ar    1  UNL1        0.0429
     16 C           8.5051    0.8308    4.4580 C.3     1  UNL1        0.0278
     17 C           5.0498    1.2856    0.5628 C.3     1  UNL1        0.0148
     18 H           0.7065   -0.2305   -0.9207 H       1  UNL1        0.0230
     19 H           0.7065    0.9195    0.3948 H       1  UNL1        0.0230
     20 H           0.7065   -0.7947    0.7331 H       1  UNL1        0.0230
     21 H           2.9398    0.7242   -0.5949 H       1  UNL1        0.0275
     22 H           2.9398   -0.9900   -0.2567 H       1  UNL1        0.0275
     23 H           2.7332   -0.5173    2.1390 H       1  UNL1        0.0426
     24 H           2.7331    1.1970    1.8008 H       1  UNL1        0.0426
     25 H           4.6931   -0.2490    3.4987 H       1  UNL1        0.0442
     26 H           4.6931    1.4653    3.1605 H       1  UNL1        0.0442
     27 H           6.9265    1.2700    2.1707 H       1  UNL1        0.0477
     28 H           6.9265   -0.4443    2.5090 H       1  UNL1        0.0477
     29 H           4.0183    1.3416    7.0467 H       1  UNL1        0.0838
     30 H           1.7438    1.4973    7.8356 H       1  UNL1        0.1047
     31 H           4.4345    0.4876    2.7186 H       1  UNL1        0.0838
     32 H           9.1020   -0.0444    4.6084 H       1  UNL1        0.0477
     33 H           9.2582    1.3621    5.0015 H       1  UNL1        0.0477
     34 H           5.3600    0.9864   -0.4166 H       1  UNL1        0.0442
     35 H           4.5493    2.1580    0.1977 H       1  UNL1        0.0442
@<TRIPOS>BOND
     1     1     2    1
     2     2     3    1
     3     3     4    1
     4     4     5    1
     5     5     6    1
     6     6     7    1
     7     7     8   am
     8     8     9    2
     9     8    10    1
    10    10    11   ar
    11    11    12   ar
    12    12    13   ar
    13    13    14   ar
    14    14    15   ar
    15    10    15   ar
    16     7    16    1
    17    16    17    1
    18     4    17    1
    19     1    18    1
    20     1    19    1
    21     1    20    1
    22     2    21    1
    23     2    22    1
    24     3    23    1
    25     3    24    1
    26     5    25    1
    27     5    26    1
    28     6    27    1
    29     6    28    1
    30    11    29    1
    31    13    30    1
    32    15    31    1
    33    16    32    1
    34    16    33    1
    35    17    34    1
    36    17    35    1
