@<TRIPOS>MOLECULE
*****
 21 20 0 0 0
SMALL
GASTEIGER

@<TRIPOS>ATOM
      1 C           1.0167   -0.0677   -0.0717 C.3     1  UNL1       -0.0653
      2 C           2.5367   -0.0677   -0.0717 C.3     1  UNL1       -0.0559
      3 C           3.0434    0.2025   -1.4791 C.3     1  UNL1       -0.0519
      4 C           4.5634    0.2025   -1.4791 C.3     1  UNL1       -0.0374
      5 C           5.0700    0.4727   -2.8864 C.3     1  UNL1        0.0113
      6 N           6.5400    0.4727   -2.8864 N.am    1  UNL1       -0.3179
      7 C           7.2750    0.7128   -4.1367 C.2     1  UNL1        0.1999
      8 O           8.5459    0.7128   -4.1367 O.2     1  UNL1       -0.2795
      9 H           0.6600   -0.2579    0.9190 H       1  UNL1        0.0230
     10 H           0.6600   -0.8306   -0.7318 H       1  UNL1        0.0230
     11 H           0.6600    0.8854   -0.4023 H       1  UNL1        0.0230
     12 H           2.8934   -1.0208    0.2589 H       1  UNL1        0.0263
     13 H           2.8934    0.6952    0.5884 H       1  UNL1        0.0263
     14 H           2.6867    1.1556   -1.8097 H       1  UNL1        0.0266
     15 H           2.6867   -0.5604   -2.1391 H       1  UNL1        0.0266
     16 H           4.9200   -0.7506   -1.1484 H       1  UNL1        0.0280
     17 H           4.9200    0.9654   -0.8190 H       1  UNL1        0.0280
     18 H           4.7134    1.4258   -3.2171 H       1  UNL1        0.0462
     19 H           4.7134   -0.2902   -3.5465 H       1  UNL1        0.0462
     20 H           7.0323    0.3120   -2.0491 H       1  UNL1        0.1484
     21 H           6.7590    0.8813   -5.0144 H       1  UNL1        0.1251
@<TRIPOS>BOND
     1     1     2    1
     2     2     3    1
     3     3     4    1
     4     4     5    1
     5     5     6    1
     6     6     7   am
     7     7     8    2
     8     1     9    1
     9     1    10    1
    10     1    11    1
    11     2    12    1
    12     2    13    1
    13     3    14    1
    14     3    15    1
    15     4    16    1
    16     4    17    1
    17     5    18    1
    18     5    19    1
    19     6    20    1
    20     7    21    1
