@<TRIPOS>MOLECULE
*****
 41 42 0 0 0
SMALL
GASTEIGER

@<TRIPOS>ATOM
      1 N           1.0566   -0.0670    0.0480 N.pl3   1  UNL1       -0.3580
      2 C           2.5266   -0.0670    0.0480 C.ar    1  UNL1        0.0246
      3 C           3.2467   -0.6324    1.1598 C.ar    1  UNL1       -0.0403
      4 C           4.6869   -0.6324    1.1598 C.ar    1  UNL1       -0.0479
      5 C           5.4070   -1.1977    2.2715 C.ar    1  UNL1        0.0368
      6 C           4.6470   -1.7944    3.4449 C.2     1  UNL1        0.2441
      7 O           5.2825   -2.2933    4.4260 O.2     1  UNL1       -0.2702
      8 N           3.1770   -1.7944    3.4449 N.am    1  UNL1       -0.3113
      9 C           2.4420   -2.3714    4.5797 C.3     1  UNL1        0.0131
     10 C           0.9476   -2.2455    4.3321 C.3     1  UNL1       -0.0245
     11 C           0.1876   -2.8422    5.5054 C.3     1  UNL1        0.0004
     12 N          -1.2577   -2.7205    5.2660 N.3     1  UNL1       -0.2999
     13 C          -1.9927   -3.2975    6.4008 C.3     1  UNL1        0.0115
     14 C          -3.4871   -3.1716    6.1532 C.3     1  UNL1        0.0087
     15 N          -4.2221   -3.7487    7.2879 N.3     1  UNL1       -0.3136
     16 C          -5.6673   -3.6269    7.0485 C.3     1  UNL1        0.0087
     17 C          -1.6128   -3.4409    4.0348 C.3     1  UNL1        0.0115
     18 C           6.8472   -1.1977    2.2715 C.ar    1  UNL1       -0.0479
     19 C           3.2467    0.4983   -1.0638 C.ar    1  UNL1       -0.0403
     20 H           0.5644   -0.4535    0.8080 H       1  UNL1        0.1423
     21 H           0.5644    0.3195   -0.7120 H       1  UNL1        0.1423
     22 H           2.7307   -1.0375    1.9564 H       1  UNL1        0.0636
     23 H           5.2029   -0.2273    0.3631 H       1  UNL1        0.0626
     24 H           2.6848   -1.4079    2.6849 H       1  UNL1        0.1490
     25 H           2.7005   -1.8470    5.4758 H       1  UNL1        0.0462
     26 H           2.7005   -3.4045    4.6838 H       1  UNL1        0.0462
     27 H           0.6891   -2.7700    3.4359 H       1  UNL1        0.0293
     28 H           0.6891   -1.2125    4.2279 H       1  UNL1        0.0293
     29 H           0.4461   -2.3178    6.4016 H       1  UNL1        0.0427
     30 H           0.4461   -3.8753    5.6096 H       1  UNL1        0.0427
     31 H          -1.7342   -2.7731    7.2969 H       1  UNL1        0.0439
     32 H          -1.7342   -4.3306    6.5049 H       1  UNL1        0.0439
     33 H          -3.7455   -3.6960    5.2570 H       1  UNL1        0.0437
     34 H          -3.7455   -2.1385    6.0490 H       1  UNL1        0.0437
     35 H          -3.9756   -3.2488    8.1422 H       1  UNL1        0.1220
     36 H          -6.2152   -2.7481    7.3177 H       1  UNL1        0.0437
     37 H          -6.5745   -4.1793    7.1779 H       1  UNL1        0.0437
     38 H          -1.6916   -2.8714    3.1325 H       1  UNL1        0.0439
     39 H          -1.0957   -4.2446    3.5535 H       1  UNL1        0.0439
     40 H           7.7968   -1.3809    2.6317 H       1  UNL1        0.0626
     41 H           3.1218    0.9627   -1.9769 H       1  UNL1        0.0636
@<TRIPOS>BOND
     1     1     2    1
     2     2     3   ar
     3     3     4   ar
     4     4     5   ar
     5     5     6    1
     6     6     7    2
     7     6     8   am
     8     8     9    1
     9     9    10    1
    10    10    11    1
    11    11    12    1
    12    12    13    1
    13    13    14    1
    14    14    15    1
    15    15    16    1
    16    16    17    1
    17    12    17    1
    18     5    18   ar
    19    18    19   ar
    20     2    19   ar
    21     1    20    1
    22     1    21    1
    23     3    22    1
    24     4    23    1
    25     8    24    1
    26     9    25    1
    27     9    26    1
    28    10    27    1
    29    10    28    1
    30    11    29    1
    31    11    30    1
    32    13    31    1
    33    13    32    1
    34    14    33    1
    35    14    34    1
    36    15    35    1
    37    16    36    1
    38    16    37    1
    39    17    38    1
    40    17    39    1
    41    18    40    1
    42    19    41    1
