@<TRIPOS>MOLECULE
*****
 32 31 0 0 0
SMALL
GASTEIGER

@<TRIPOS>ATOM
      1 C           0.9544    0.0645   -0.0613 C.3     1  UNL1       -0.0570
      2 C           2.4744    0.0645   -0.0613 C.3     1  UNL1        0.0211
      3 C           2.9810    1.0094    1.0162 C.2     1  UNL1        0.2128
      4 O           2.1551    1.6463    1.7425 O.2     1  UNL1       -0.2758
      5 N           4.4263    1.1865    1.2182 N.am    1  UNL1       -0.3153
      6 C           4.9163    2.1003    2.2602 C.3     1  UNL1        0.0116
      7 C           6.4363    2.1003    2.2602 C.3     1  UNL1       -0.0360
      8 C           6.9429    3.0451    3.3376 C.3     1  UNL1       -0.0360
      9 C           8.4629    3.0451    3.3376 C.3     1  UNL1        0.0117
     10 N           8.9529    3.9589    4.3797 N.am    1  UNL1       -0.3134
     11 C          10.3982    4.1360    4.5816 C.2     1  UNL1        0.2385
     12 O          11.2240    3.4991    3.8553 O.2     1  UNL1       -0.2733
     13 C          10.9048    5.0809    5.6591 C.3     1  UNL1        0.1202
     14 O          12.3248    5.0809    5.6591 O.3     1  UNL1       -0.3858
     15 H           0.5977   -0.6006   -0.8197 H       1  UNL1        0.0234
     16 H           0.5977    1.0539   -0.2580 H       1  UNL1        0.0234
     17 H           0.5977   -0.2598    0.8940 H       1  UNL1        0.0234
     18 H           2.8310    0.3888   -1.0165 H       1  UNL1        0.0356
     19 H           2.8310   -0.9249    0.1355 H       1  UNL1        0.0356
     20 H           5.0660    0.6931    0.6555 H       1  UNL1        0.1487
     21 H           4.5596    1.7760    3.2154 H       1  UNL1        0.0462
     22 H           4.5596    3.0897    2.0634 H       1  UNL1        0.0462
     23 H           6.7929    2.4246    1.3049 H       1  UNL1        0.0281
     24 H           6.7929    1.1109    2.4570 H       1  UNL1        0.0281
     25 H           6.5863    2.7208    4.2929 H       1  UNL1        0.0281
     26 H           6.5863    4.0346    3.1409 H       1  UNL1        0.0281
     27 H           8.8196    3.3694    2.3824 H       1  UNL1        0.0462
     28 H           8.8196    2.0557    3.5344 H       1  UNL1        0.0462
     29 H           8.3132    4.4523    4.9423 H       1  UNL1        0.1487
     30 H          10.5482    4.7566    6.6143 H       1  UNL1        0.0654
     31 H          10.5482    6.0703    5.4623 H       1  UNL1        0.0654
     32 H          12.6482    4.1839    5.8375 H       1  UNL1        0.2100
@<TRIPOS>BOND
     1     1     2    1
     2     2     3    1
     3     3     4    2
     4     3     5   am
     5     5     6    1
     6     6     7    1
     7     7     8    1
     8     8     9    1
     9     9    10    1
    10    10    11   am
    11    11    12    2
    12    11    13    1
    13    13    14    1
    14     1    15    1
    15     1    16    1
    16     1    17    1
    17     2    18    1
    18     2    19    1
    19     5    20    1
    20     6    21    1
    21     6    22    1
    22     7    23    1
    23     7    24    1
    24     8    25    1
    25     8    26    1
    26     9    27    1
    27     9    28    1
    28    10    29    1
    29    13    30    1
    30    13    31    1
    31    14    32    1
