@<TRIPOS>MOLECULE
*****
 29 28 0 0 0
SMALL
GASTEIGER

@<TRIPOS>ATOM
      1 C           1.0121    0.0669    0.0733 C.3     1  UNL1        0.0121
      2 C           2.5321    0.0669    0.0733 C.2     1  UNL1        0.2099
      3 O           3.1676    0.7817   -0.7636 O.2     1  UNL1       -0.2761
      4 N           3.2671   -0.7599    1.0413 N.am    1  UNL1       -0.3155
      5 C           4.7371   -0.7599    1.0413 C.3     1  UNL1        0.0116
      6 C           5.2438   -1.6906    2.1311 C.3     1  UNL1       -0.0374
      7 C           6.7638   -1.6906    2.1311 C.3     1  UNL1       -0.0516
      8 C           7.2704   -2.6213    3.2208 C.3     1  UNL1       -0.0519
      9 C           8.7904   -2.6213    3.2208 C.3     1  UNL1       -0.0406
     10 C           9.2971   -3.5520    4.3105 C.3     1  UNL1       -0.0069
     11 N          10.7671   -3.5520    4.3105 N.3     1  UNL1       -0.3300
     12 H           0.6555    0.7221   -0.6938 H       1  UNL1        0.0322
     13 H           0.6555    0.4037    1.0242 H       1  UNL1        0.0322
     14 H           0.6554   -0.9250   -0.1105 H       1  UNL1        0.0322
     15 H           2.7749   -1.3136    1.6897 H       1  UNL1        0.1487
     16 H           5.0938    0.2321    1.2252 H       1  UNL1        0.0462
     17 H           5.0938   -1.0966    0.0904 H       1  UNL1        0.0462
     18 H           4.8871   -2.6825    1.9472 H       1  UNL1        0.0280
     19 H           4.8871   -1.3538    3.0820 H       1  UNL1        0.0280
     20 H           7.1204   -0.6987    2.3149 H       1  UNL1        0.0266
     21 H           7.1204   -2.0273    1.1801 H       1  UNL1        0.0266
     22 H           6.9138   -3.6132    3.0369 H       1  UNL1        0.0266
     23 H           6.9138   -2.2845    4.1717 H       1  UNL1        0.0266
     24 H           9.1471   -1.6294    3.4046 H       1  UNL1        0.0277
     25 H           9.1471   -2.9580    2.2698 H       1  UNL1        0.0277
     26 H           8.9404   -4.5439    4.1266 H       1  UNL1        0.0422
     27 H           8.9404   -3.2152    5.2614 H       1  UNL1        0.0422
     28 H          11.1071   -3.8730    3.4040 H       1  UNL1        0.1182
     29 H          11.1071   -4.1765    5.0417 H       1  UNL1        0.1182
@<TRIPOS>BOND
     1     1     2    1
     2     2     3    2
     3     2     4   am
     4     4     5    1
     5     5     6    1
     6     6     7    1
     7     7     8    1
     8     8     9    1
     9     9    10    1
    10    10    11    1
    11     1    12    1
    12     1    13    1
    13     1    14    1
    14     4    15    1
    15     5    16    1
    16     5    17    1
    17     6    18    1
    18     6    19    1
    19     7    20    1
    20     7    21    1
    21     8    22    1
    22     8    23    1
    23     9    24    1
    24     9    25    1
    25    10    26    1
    26    10    27    1
    27    11    28    1
    28    11    29    1
