@<TRIPOS>MOLECULE
*****
 41 41 0 0 0
SMALL
GASTEIGER

@<TRIPOS>ATOM
      1 C           1.0494    0.0683    0.0538 C.3     1  UNL1       -0.0653
      2 C           2.5694    0.0683    0.0538 C.3     1  UNL1       -0.0559
      3 C           3.0761    1.0628    1.0856 C.3     1  UNL1       -0.0533
      4 C           4.5961    1.0628    1.0856 C.3     1  UNL1       -0.0530
      5 C           5.1028    2.0573    2.1175 C.3     1  UNL1       -0.0510
      6 C           6.6228    2.0573    2.1175 C.3     1  UNL1       -0.0294
      7 C           7.1294    3.0518    3.1493 C.3     1  UNL1        0.0483
      8 O           8.5494    3.0518    3.1493 O.3     1  UNL1       -0.3706
      9 C           9.0227    3.9808    4.1132 C.3     1  UNL1        0.1240
     10 C          10.5427    3.9808    4.1132 C.2     1  UNL1        0.2430
     11 O          11.1782    3.2170    3.3208 O.2     1  UNL1       -0.2729
     12 N          11.2777    4.8643    5.0299 N.am    1  UNL1       -0.2836
     13 C          12.7477    4.8643    5.0299 C.ar    1  UNL1        0.0335
     14 C          13.4678    5.7298    5.9279 C.ar    1  UNL1       -0.0405
     15 C          14.9080    5.7298    5.9279 C.ar    1  UNL1       -0.0600
     16 C          15.6281    6.5954    6.8259 C.ar    1  UNL1       -0.0616
     17 C          17.0683    6.5954    6.8259 C.ar    1  UNL1       -0.0600
     18 C          13.4678    3.9987    4.1318 C.ar    1  UNL1       -0.0405
     19 H           0.6928   -0.6318   -0.6725 H       1  UNL1        0.0230
     20 H           0.6928    1.0473   -0.1893 H       1  UNL1        0.0230
     21 H           0.6928   -0.2107    1.0233 H       1  UNL1        0.0230
     22 H           2.9261    0.3473   -0.9156 H       1  UNL1        0.0263
     23 H           2.9261   -0.9108    0.2969 H       1  UNL1        0.0263
     24 H           2.7194    0.7838    2.0551 H       1  UNL1        0.0265
     25 H           2.7194    2.0418    0.8425 H       1  UNL1        0.0265
     26 H           4.9528    1.3418    0.1162 H       1  UNL1        0.0265
     27 H           4.9528    0.0837    1.3288 H       1  UNL1        0.0265
     28 H           4.7461    1.7783    3.0869 H       1  UNL1        0.0266
     29 H           4.7461    3.0363    1.8744 H       1  UNL1        0.0266
     30 H           6.9794    2.3363    1.1480 H       1  UNL1        0.0287
     31 H           6.9794    1.0782    2.3606 H       1  UNL1        0.0287
     32 H           6.7727    2.7728    4.1188 H       1  UNL1        0.0560
     33 H           6.7727    4.0308    2.9062 H       1  UNL1        0.0560
     34 H           8.6661    3.7018    5.0827 H       1  UNL1        0.0657
     35 H           8.6661    4.9599    3.8701 H       1  UNL1        0.0657
     36 H          10.7855    5.4560    5.6437 H       1  UNL1        0.1549
     37 H          12.9518    6.3500    6.5714 H       1  UNL1        0.0636
     38 H          15.4240    5.1096    5.2844 H       1  UNL1        0.0618
     39 H          15.1121    7.2156    7.4694 H       1  UNL1        0.0618
     40 H          18.0179    6.8758    7.1169 H       1  UNL1        0.0618
     41 H          13.3430    3.2878    3.3942 H       1  UNL1        0.0636
@<TRIPOS>BOND
     1     1     2    1
     2     2     3    1
     3     3     4    1
     4     4     5    1
     5     5     6    1
     6     6     7    1
     7     7     8    1
     8     8     9    1
     9     9    10    1
    10    10    11    2
    11    10    12   am
    12    12    13    1
    13    13    14   ar
    14    14    15   ar
    15    15    16   ar
    16    16    17   ar
    17    17    18   ar
    18    13    18   ar
    19     1    19    1
    20     1    20    1
    21     1    21    1
    22     2    22    1
    23     2    23    1
    24     3    24    1
    25     3    25    1
    26     4    26    1
    27     4    27    1
    28     5    28    1
    29     5    29    1
    30     6    30    1
    31     6    31    1
    32     7    32    1
    33     7    33    1
    34     9    34    1
    35     9    35    1
    36    12    36    1
    37    14    37    1
    38    15    38    1
    39    16    39    1
    40    17    40    1
    41    18    41    1
