@<TRIPOS>MOLECULE
*****
 33 32 0 0 0
SMALL
GASTEIGER

@<TRIPOS>ATOM
      1 C           1.0949    0.0073   -0.0305 C.3     1  UNL1       -0.0157
      2 N           2.5649    0.0073   -0.0305 N.3     1  UNL1       -0.3168
      3 C           3.0549   -0.7434    1.1344 C.3     1  UNL1        0.0191
      4 C           4.5749   -0.7434    1.1344 C.3     1  UNL1        0.0602
      5 O           5.0483   -1.4687    2.2598 O.3     1  UNL1       -0.3763
      6 C           6.4683   -1.4687    2.2598 C.3     1  UNL1        0.0711
      7 C           6.9749   -2.2450    3.4644 C.3     1  UNL1        0.0711
      8 O           8.3949   -2.2450    3.4644 O.3     1  UNL1       -0.3752
      9 C           8.8683   -2.9702    4.5897 C.3     1  UNL1        0.0711
     10 C          10.3883   -2.9702    4.5897 C.3     1  UNL1        0.0715
     11 O          10.8616   -3.6954    5.7151 O.3     1  UNL1       -0.3703
     12 C          12.2816   -3.6954    5.7151 C.3     1  UNL1        0.1028
     13 C          12.7882   -4.4717    6.9197 C.2     1  UNL1        0.1458
     14 O          14.0377   -4.5975    7.1149 O.2     1  UNL1       -0.2986
     15 H           0.7383    0.5538   -0.8785 H       1  UNL1        0.0388
     16 H           0.7383    0.4685    0.8667 H       1  UNL1        0.0388
     17 H           0.7383   -1.0003   -0.0798 H       1  UNL1        0.0388
     18 H           2.9049    0.9678    0.0164 H       1  UNL1        0.1217
     19 H           2.6983   -1.7510    1.0852 H       1  UNL1        0.0446
     20 H           2.6983   -0.2823    2.0317 H       1  UNL1        0.0446
     21 H           4.9316    0.2642    1.1837 H       1  UNL1        0.0572
     22 H           4.9316   -1.2046    0.2372 H       1  UNL1        0.0572
     23 H           6.8249   -0.4611    2.3091 H       1  UNL1        0.0583
     24 H           6.8249   -1.9298    1.3625 H       1  UNL1        0.0583
     25 H           6.6183   -3.2526    3.4151 H       1  UNL1        0.0583
     26 H           6.6183   -1.7838    4.3616 H       1  UNL1        0.0583
     27 H           8.5116   -3.9778    4.5404 H       1  UNL1        0.0583
     28 H           8.5116   -2.5091    5.4870 H       1  UNL1        0.0583
     29 H          10.7449   -1.9626    4.6390 H       1  UNL1        0.0583
     30 H          10.7449   -3.4313    3.6925 H       1  UNL1        0.0583
     31 H          12.6382   -2.6878    5.7643 H       1  UNL1        0.0636
     32 H          12.6383   -4.1566    4.8178 H       1  UNL1        0.0636
     33 H          12.1176   -4.8966    7.5790 H       1  UNL1        0.1051
@<TRIPOS>BOND
     1     1     2    1
     2     2     3    1
     3     3     4    1
     4     4     5    1
     5     5     6    1
     6     6     7    1
     7     7     8    1
     8     8     9    1
     9     9    10    1
    10    10    11    1
    11    11    12    1
    12    12    13    1
    13    13    14    2
    14     1    15    1
    15     1    16    1
    16     1    17    1
    17     2    18    1
    18     3    19    1
    19     3    20    1
    20     4    21    1
    21     4    22    1
    22     6    23    1
    23     6    24    1
    24     7    25    1
    25     7    26    1
    26     9    27    1
    27     9    28    1
    28    10    29    1
    29    10    30    1
    30    12    31    1
    31    12    32    1
    32    13    33    1
