@<TRIPOS>MOLECULE
*****
 30 31 0 0 0
SMALL
GASTEIGER

@<TRIPOS>ATOM
      1 C           0.9630    0.0092    0.0925 C.3     1  UNL1       -0.0530
      2 C           2.4830    0.0092    0.0925 C.3     1  UNL1       -0.0526
      3 C           2.9897   -1.4164    0.2394 C.3     1  UNL1       -0.0473
      4 C           4.5097   -1.4164    0.2394 C.3     1  UNL1       -0.0269
      5 C           5.0163   -0.5763    1.4005 C.3     1  UNL1       -0.0473
      6 C           0.4563    1.4347   -0.0545 C.3     1  UNL1       -0.0526
      7 C           5.0163   -2.8419    0.3864 C.3     1  UNL1       -0.0347
      8 C           6.5363   -2.8419    0.3864 C.3     1  UNL1       -0.0036
      9 N           7.0263   -4.2205    0.5286 N.3     1  UNL1       -0.3159
     10 C           8.4963   -4.2205    0.5286 C.3     1  UNL1       -0.0036
     11 C           5.0163   -0.8309   -1.0686 C.3     1  UNL1       -0.0347
     12 H           0.6063   -0.4030    1.0132 H       1  UNL1        0.0265
     13 H           0.6063   -0.5822   -0.7249 H       1  UNL1        0.0265
     14 H           2.8397    0.6005    0.9098 H       1  UNL1        0.0265
     15 H           2.8397    0.4213   -0.8283 H       1  UNL1        0.0265
     16 H           2.6330   -2.0077   -0.5779 H       1  UNL1        0.0271
     17 H           2.6330   -1.8285    1.1602 H       1  UNL1        0.0271
     18 H           5.8937    0.0148    1.2401 H       1  UNL1        0.0271
     19 H           5.3351   -0.8914    2.3721 H       1  UNL1        0.0271
     20 H           0.3180    1.8910   -1.0124 H       1  UNL1        0.0265
     21 H          -0.3161    2.0761    0.3154 H       1  UNL1        0.0265
     22 H           4.6597   -3.4332   -0.4309 H       1  UNL1        0.0283
     23 H           4.6597   -3.2540    1.3072 H       1  UNL1        0.0283
     24 H           6.8930   -2.2505    1.2037 H       1  UNL1        0.0424
     25 H           6.8930   -2.4297   -0.5344 H       1  UNL1        0.0424
     26 H           6.6863   -4.7842   -0.2506 H       1  UNL1        0.1219
     27 H           9.0626   -4.8162   -0.1565 H       1  UNL1        0.0424
     28 H           9.3186   -4.2963    1.2090 H       1  UNL1        0.0424
     29 H           4.4713   -1.0600   -1.9604 H       1  UNL1        0.0283
     30 H           5.1481    0.1945   -1.3443 H       1  UNL1        0.0283
@<TRIPOS>BOND
     1     1     2    1
     2     2     3    1
     3     3     4    1
     4     4     5    1
     5     5     6    1
     6     1     6    1
     7     4     7    1
     8     7     8    1
     9     8     9    1
    10     9    10    1
    11    10    11    1
    12     4    11    1
    13     1    12    1
    14     1    13    1
    15     2    14    1
    16     2    15    1
    17     3    16    1
    18     3    17    1
    19     5    18    1
    20     5    19    1
    21     6    20    1
    22     6    21    1
    23     7    22    1
    24     7    23    1
    25     8    24    1
    26     8    25    1
    27     9    26    1
    28    10    27    1
    29    10    28    1
    30    11    29    1
    31    11    30    1
