@<TRIPOS>MOLECULE
*****
 29 28 0 0 0
SMALL
GASTEIGER

@<TRIPOS>ATOM
      1 C           1.0316   -0.0417    0.0853 C.3     1  UNL1       -0.0653
      2 C           2.5516   -0.0417    0.0853 C.3     1  UNL1       -0.0559
      3 C           3.0582    0.8367   -1.0471 C.3     1  UNL1       -0.0533
      4 C           4.5782    0.8367   -1.0471 C.3     1  UNL1       -0.0531
      5 C           5.0849    1.7150   -2.1794 C.3     1  UNL1       -0.0531
      6 C           6.6049    1.7150   -2.1794 C.3     1  UNL1       -0.0531
      7 C           7.1116    2.5934   -3.3118 C.3     1  UNL1       -0.0533
      8 C           8.6316    2.5934   -3.3118 C.3     1  UNL1       -0.0559
      9 C           9.1382    3.4717   -4.4441 C.3     1  UNL1       -0.0653
     10 H           0.6749   -0.6600    0.8824 H       1  UNL1        0.0230
     11 H           0.6749   -0.4228   -0.8488 H       1  UNL1        0.0230
     12 H           0.6749    0.9578    0.2222 H       1  UNL1        0.0230
     13 H           2.9082   -1.0411   -0.0517 H       1  UNL1        0.0263
     14 H           2.9082    0.3395    1.0193 H       1  UNL1        0.0263
     15 H           2.7016    1.8362   -0.9102 H       1  UNL1        0.0265
     16 H           2.7016    0.4555   -1.9811 H       1  UNL1        0.0265
     17 H           4.9349   -0.1628   -1.1840 H       1  UNL1        0.0265
     18 H           4.9349    1.2178   -0.1131 H       1  UNL1        0.0265
     19 H           4.7282    2.7145   -2.0425 H       1  UNL1        0.0265
     20 H           4.7282    1.3339   -3.1135 H       1  UNL1        0.0265
     21 H           6.9616    0.7156   -2.3164 H       1  UNL1        0.0265
     22 H           6.9616    2.0962   -1.2454 H       1  UNL1        0.0265
     23 H           6.7549    3.5929   -3.1749 H       1  UNL1        0.0265
     24 H           6.7549    2.2122   -4.2458 H       1  UNL1        0.0265
     25 H           8.9882    1.5939   -3.4487 H       1  UNL1        0.0263
     26 H           8.9882    2.9745   -2.3778 H       1  UNL1        0.0263
     27 H           8.7815    3.0906   -5.3781 H       1  UNL1        0.0230
     28 H          10.2082    3.4717   -4.4441 H       1  UNL1        0.0230
     29 H           8.7816    4.4712   -4.3072 H       1  UNL1        0.0230
@<TRIPOS>BOND
     1     1     2    1
     2     2     3    1
     3     3     4    1
     4     4     5    1
     5     5     6    1
     6     6     7    1
     7     7     8    1
     8     8     9    1
     9     1    10    1
    10     1    11    1
    11     1    12    1
    12     2    13    1
    13     2    14    1
    14     3    15    1
    15     3    16    1
    16     4    17    1
    17     4    18    1
    18     5    19    1
    19     5    20    1
    20     6    21    1
    21     6    22    1
    22     7    23    1
    23     7    24    1
    24     8    25    1
    25     8    26    1
    26     9    27    1
    27     9    28    1
    28     9    29    1
