@<TRIPOS>MOLECULE
*****
 9 8 0 0 0
SMALL
GASTEIGER

@<TRIPOS>ATOM
      1 C           1.0799   -0.0558    0.0225 C.3     1  UNL1       -0.0418
      2 C           2.5999   -0.0558    0.0225 C.3     1  UNL1        0.0414
      3 O           3.0732   -0.5473   -1.2229 O.3     1  UNL1       -0.3953
      4 H           0.7232    0.3145    0.9608 H       1  UNL1        0.0252
      5 H           0.7232   -1.0536   -0.1260 H       1  UNL1        0.0252
      6 H           0.7232    0.5717   -0.7674 H       1  UNL1        0.0252
      7 H           2.9565   -0.6833    0.8124 H       1  UNL1        0.0554
      8 H           2.9565    0.9420    0.1709 H       1  UNL1        0.0554
      9 H           2.7499   -1.4518   -1.3575 H       1  UNL1        0.2094
@<TRIPOS>BOND
     1     1     2    1
     2     2     3    1
     3     1     4    1
     4     1     5    1
     5     1     6    1
     6     2     7    1
     7     2     8    1
     8     3     9    1
