@<TRIPOS>MOLECULE
*****
 38 37 0 0 0
SMALL
GASTEIGER

@<TRIPOS>ATOM
      1 C           0.9170    0.0060    0.0554 C.3     1  UNL1        0.0121
      2 C           2.4370    0.0060    0.0554 C.2     1  UNL1        0.2100
      3 O           3.0724   -1.0589   -0.2227 O.2     1  UNL1       -0.2761
      4 N           3.1720    1.2378    0.3771 N.am    1  UNL1       -0.3133
      5 C           4.6420    1.2378    0.3771 C.3     1  UNL1        0.0350
      6 C           5.1486    2.6243    0.7393 C.3     1  UNL1        0.0632
      7 O           6.5686    2.6243    0.7393 O.3     1  UNL1       -0.3760
      8 C           7.0420    3.9197    1.0776 C.3     1  UNL1        0.0711
      9 C           8.5620    3.9197    1.0776 C.3     1  UNL1        0.0711
     10 O           9.0353    5.2150    1.4160 O.3     1  UNL1       -0.3752
     11 C          10.4553    5.2150    1.4160 C.3     1  UNL1        0.0711
     12 C          10.9620    6.6016    1.7781 C.3     1  UNL1        0.0711
     13 O          12.3820    6.6016    1.7781 O.3     1  UNL1       -0.3763
     14 C          12.8553    7.8969    2.1164 C.3     1  UNL1        0.0600
     15 C          14.3753    7.8969    2.1164 C.3     1  UNL1        0.0166
     16 N          14.8653    9.2378    2.4667 N.3     1  UNL1       -0.3279
     17 H           0.5603   -0.9700   -0.1995 H       1  UNL1        0.0322
     18 H           0.5603    0.7149   -0.6624 H       1  UNL1        0.0322
     19 H           0.5603    0.2733    1.0282 H       1  UNL1        0.0322
     20 H           2.6797    2.0627    0.5926 H       1  UNL1        0.1488
     21 H           4.9987    0.9705   -0.5956 H       1  UNL1        0.0484
     22 H           4.9987    0.5290    1.0950 H       1  UNL1        0.0484
     23 H           4.7920    2.8916    1.7121 H       1  UNL1        0.0575
     24 H           4.7920    3.3331    0.0215 H       1  UNL1        0.0575
     25 H           6.6853    4.1869    2.0504 H       1  UNL1        0.0583
     26 H           6.6853    4.6285    0.3598 H       1  UNL1        0.0583
     27 H           8.9186    3.6524    0.1049 H       1  UNL1        0.0583
     28 H           8.9186    3.2109    1.7955 H       1  UNL1        0.0583
     29 H          10.8120    4.9478    0.4432 H       1  UNL1        0.0583
     30 H          10.8120    4.5062    2.1338 H       1  UNL1        0.0583
     31 H          10.6053    6.8688    2.7509 H       1  UNL1        0.0583
     32 H          10.6053    7.3104    1.0603 H       1  UNL1        0.0583
     33 H          12.4986    8.1641    3.0892 H       1  UNL1        0.0572
     34 H          12.4986    8.6057    1.3986 H       1  UNL1        0.0572
     35 H          14.7320    7.6296    1.1437 H       1  UNL1        0.0444
     36 H          14.7320    7.1881    2.8343 H       1  UNL1        0.0444
     37 H          14.5253    9.9135    1.7824 H       1  UNL1        0.1183
     38 H          15.8853    9.2378    2.4667 H       1  UNL1        0.1183
@<TRIPOS>BOND
     1     1     2    1
     2     2     3    2
     3     2     4   am
     4     4     5    1
     5     5     6    1
     6     6     7    1
     7     7     8    1
     8     8     9    1
     9     9    10    1
    10    10    11    1
    11    11    12    1
    12    12    13    1
    13    13    14    1
    14    14    15    1
    15    15    16    1
    16     1    17    1
    17     1    18    1
    18     1    19    1
    19     4    20    1
    20     5    21    1
    21     5    22    1
    22     6    23    1
    23     6    24    1
    24     8    25    1
    25     8    26    1
    26     9    27    1
    27     9    28    1
    28    11    29    1
    29    11    30    1
    30    12    31    1
    31    12    32    1
    32    14    33    1
    33    14    34    1
    34    15    35    1
    35    15    36    1
    36    16    37    1
    37    16    38    1
