@<TRIPOS>MOLECULE
*****
 33 32 0 0 0
SMALL
GASTEIGER

@<TRIPOS>ATOM
      1 C           0.9316    0.0408    0.0604 C.3     1  UNL1       -0.0632
      2 C           2.4516    0.0408    0.0604 C.3     1  UNL1       -0.0323
      3 C           2.9582    1.1637    0.9508 C.3     1  UNL1        0.0475
      4 O           4.3782    1.1637    0.9508 O.3     1  UNL1       -0.3775
      5 C           4.8515    2.2127    1.7826 C.3     1  UNL1        0.0710
      6 C           6.3715    2.2127    1.7826 C.3     1  UNL1        0.0711
      7 O           6.8449    3.2618    2.6144 O.3     1  UNL1       -0.3762
      8 C           8.2649    3.2618    2.6144 C.3     1  UNL1        0.0604
      9 C           8.7715    4.3847    3.5047 C.3     1  UNL1        0.0218
     10 N          10.2415    4.3847    3.5047 N.3     1  UNL1       -0.3062
     11 C          10.7315    4.5874    2.1337 C.3     1  UNL1       -0.0130
     12 C          10.7315    5.4707    4.3658 C.3     1  UNL1       -0.0130
     13 H           0.5749   -0.7497   -0.5663 H       1  UNL1        0.0230
     14 H           0.5749    0.9788   -0.3107 H       1  UNL1        0.0230
     15 H           0.5749   -0.1068    1.0584 H       1  UNL1        0.0230
     16 H           2.8082    0.1883   -0.9375 H       1  UNL1        0.0285
     17 H           2.8082   -0.8973    0.4316 H       1  UNL1        0.0285
     18 H           2.6015    1.0161    1.9488 H       1  UNL1        0.0560
     19 H           2.6015    2.1017    0.5796 H       1  UNL1        0.0560
     20 H           4.4949    2.0652    2.7805 H       1  UNL1        0.0583
     21 H           4.4949    3.1508    1.4114 H       1  UNL1        0.0583
     22 H           6.7282    2.3603    0.7846 H       1  UNL1        0.0583
     23 H           6.7282    1.2747    2.1538 H       1  UNL1        0.0583
     24 H           8.6215    3.4093    1.6164 H       1  UNL1        0.0572
     25 H           8.6215    2.3237    2.9856 H       1  UNL1        0.0572
     26 H           8.4149    4.2371    4.5027 H       1  UNL1        0.0449
     27 H           8.4149    5.3227    3.1335 H       1  UNL1        0.0449
     28 H          10.3749    3.7969    1.5069 H       1  UNL1        0.0391
     29 H          11.8015    4.5874    2.1337 H       1  UNL1        0.0391
     30 H          10.3749    5.5255    1.7625 H       1  UNL1        0.0391
     31 H          10.3749    5.3231    5.3638 H       1  UNL1        0.0391
     32 H          10.3749    6.4087    3.9946 H       1  UNL1        0.0391
     33 H          11.8015    5.4707    4.3658 H       1  UNL1        0.0391
@<TRIPOS>BOND
     1     1     2    1
     2     2     3    1
     3     3     4    1
     4     4     5    1
     5     5     6    1
     6     6     7    1
     7     7     8    1
     8     8     9    1
     9     9    10    1
    10    10    11    1
    11    10    12    1
    12     1    13    1
    13     1    14    1
    14     1    15    1
    15     2    16    1
    16     2    17    1
    17     3    18    1
    18     3    19    1
    19     5    20    1
    20     5    21    1
    21     6    22    1
    22     6    23    1
    23     8    24    1
    24     8    25    1
    25     9    26    1
    26     9    27    1
    27    11    28    1
    28    11    29    1
    29    11    30    1
    30    12    31    1
    31    12    32    1
    32    12    33    1
