@<TRIPOS>MOLECULE
*****
 34 34 0 0 0
SMALL
GASTEIGER

@<TRIPOS>ATOM
      1 O           1.0684   -0.0509   -0.0522 O.2     1  UNL1       -0.2986
      2 C           2.3393   -0.0509   -0.0522 C.2     1  UNL1        0.1458
      3 C           3.0993    1.1385   -0.6163 C.3     1  UNL1        0.1028
      4 O           4.4954    0.9040   -0.5051 O.3     1  UNL1       -0.3703
      5 C           5.2054    2.0152   -1.0321 C.3     1  UNL1        0.0715
      6 C           6.6998    1.7642   -0.9130 C.3     1  UNL1        0.0711
      7 O           7.4098    2.8753   -1.4400 O.3     1  UNL1       -0.3752
      8 C           8.8059    2.6409   -1.3288 C.3     1  UNL1        0.0711
      9 C           9.5659    3.8302   -1.8929 C.3     1  UNL1        0.0711
     10 O          10.9620    3.5958   -1.7817 O.3     1  UNL1       -0.3757
     11 C          11.6720    4.7069   -2.3087 C.3     1  UNL1        0.0673
     12 C          13.1664    4.4560   -2.1896 C.3     1  UNL1        0.0665
     13 N          13.9014    5.6062   -2.7352 N.ar    1  UNL1       -0.2495
     14 C          15.2942    5.6062   -2.7352 C.ar    1  UNL1        0.0455
     15 C          16.0143    6.7332   -3.2696 C.ar    1  UNL1        0.0693
     16 N          17.4072    6.7332   -3.2696 N.ar    1  UNL1       -0.1380
     17 N          13.2287    6.6590   -3.2345 N.ar    1  UNL1       -0.0657
     18 H           2.8553   -0.8584    0.3308 H       1  UNL1        0.1051
     19 H           2.8408    2.0198   -0.0673 H       1  UNL1        0.0636
     20 H           2.8408    1.2711   -1.6461 H       1  UNL1        0.0636
     21 H           4.9469    2.8965   -0.4831 H       1  UNL1        0.0583
     22 H           4.9469    2.1477   -2.0619 H       1  UNL1        0.0583
     23 H           6.9583    0.8829   -1.4620 H       1  UNL1        0.0583
     24 H           6.9583    1.6316    0.1168 H       1  UNL1        0.0583
     25 H           9.0644    1.7595   -1.8778 H       1  UNL1        0.0583
     26 H           9.0644    2.5083   -0.2990 H       1  UNL1        0.0583
     27 H           9.3074    4.7116   -1.3439 H       1  UNL1        0.0583
     28 H           9.3074    3.9628   -2.9227 H       1  UNL1        0.0583
     29 H          11.4135    5.5883   -1.7597 H       1  UNL1        0.0578
     30 H          11.4135    4.8395   -3.3385 H       1  UNL1        0.0578
     31 H          13.4249    3.5746   -2.7386 H       1  UNL1        0.0532
     32 H          13.4249    4.3234   -1.1598 H       1  UNL1        0.0532
     33 H          15.8102    4.7987   -2.3522 H       1  UNL1        0.0842
     34 H          15.4983    7.5407   -3.6526 H       1  UNL1        0.0864
@<TRIPOS>BOND
     1     1     2    2
     2     2     3    1
     3     3     4    1
     4     4     5    1
     5     5     6    1
     6     6     7    1
     7     7     8    1
     8     8     9    1
     9     9    10    1
    10    10    11    1
    11    11    12    1
    12    12    13    1
    13    13    14   ar
    14    14    15   ar
    15    15    16   ar
    16    16    17   ar
    17    13    17   ar
    18     2    18    1
    19     3    19    1
    20     3    20    1
    21     5    21    1
    22     5    22    1
    23     6    23    1
    24     6    24    1
    25     8    25    1
    26     8    26    1
    27     9    27    1
    28     9    28    1
    29    11    29    1
    30    11    30    1
    31    12    31    1
    32    12    32    1
    33    14    33    1
    34    15    34    1
