@<TRIPOS>MOLECULE
*****
 55 54 0 0 0
SMALL
GASTEIGER

@<TRIPOS>ATOM
      1 C           0.9525   -0.0715    0.0514 C.3     1  UNL1        0.0365
      2 O           2.3725   -0.0715    0.0514 O.3     1  UNL1       -0.3807
      3 C           2.8458    1.0210   -0.7225 C.3     1  UNL1        0.0706
      4 C           4.3658    1.0210   -0.7225 C.3     1  UNL1        0.0711
      5 O           4.8392    2.1134   -1.4964 O.3     1  UNL1       -0.3752
      6 C           6.2592    2.1134   -1.4964 C.3     1  UNL1        0.0711
      7 C           6.7658    3.2828   -2.3248 C.3     1  UNL1        0.0711
      8 O           8.1858    3.2828   -2.3248 O.3     1  UNL1       -0.3752
      9 C           8.6592    4.3753   -3.0987 C.3     1  UNL1        0.0711
     10 C          10.1792    4.3753   -3.0987 C.3     1  UNL1        0.0711
     11 O          10.6525    5.4677   -3.8726 O.3     1  UNL1       -0.3752
     12 C          12.0725    5.4677   -3.8726 C.3     1  UNL1        0.0711
     13 C          12.5792    6.6371   -4.7010 C.3     1  UNL1        0.0711
     14 O          13.9992    6.6371   -4.7010 O.3     1  UNL1       -0.3760
     15 C          14.4725    7.7296   -5.4749 C.3     1  UNL1        0.0635
     16 C          15.9925    7.7296   -5.4749 C.3     1  UNL1        0.0378
     17 N          16.4825    8.8605   -6.2760 N.am    1  UNL1       -0.3023
     18 C          15.5272    9.7722   -6.9219 C.3     1  UNL1        0.0032
     19 C          17.9277    9.0797   -6.4313 C.2     1  UNL1        0.2166
     20 O          18.7536    8.2914   -5.8729 O.2     1  UNL1       -0.2756
     21 C          18.4344   10.2490   -7.2597 C.3     1  UNL1        0.0364
     22 C          19.9544   10.2490   -7.2597 C.3     1  UNL1        0.0014
     23 N          20.4444   11.3800   -8.0609 N.3     1  UNL1       -0.3295
     24 H           0.5959   -0.8946    0.6345 H       1  UNL1        0.0524
     25 H           0.5958   -0.1649   -0.9531 H       1  UNL1        0.0524
     26 H           0.5958    0.8452    0.4727 H       1  UNL1        0.0524
     27 H           2.4892    1.9376   -0.3012 H       1  UNL1        0.0582
     28 H           2.4892    0.9276   -1.7270 H       1  UNL1        0.0582
     29 H           4.7225    0.1044   -1.1438 H       1  UNL1        0.0583
     30 H           4.7225    1.1144    0.2819 H       1  UNL1        0.0583
     31 H           6.6158    1.1968   -1.9177 H       1  UNL1        0.0583
     32 H           6.6158    2.2069   -0.4919 H       1  UNL1        0.0583
     33 H           6.4092    4.1994   -1.9035 H       1  UNL1        0.0583
     34 H           6.4092    3.1894   -3.3293 H       1  UNL1        0.0583
     35 H           8.3025    5.2919   -2.6774 H       1  UNL1        0.0583
     36 H           8.3025    4.2818   -4.1032 H       1  UNL1        0.0583
     37 H          10.5358    3.4587   -3.5200 H       1  UNL1        0.0583
     38 H          10.5358    4.4687   -2.0942 H       1  UNL1        0.0583
     39 H          12.4292    4.5511   -4.2939 H       1  UNL1        0.0583
     40 H          12.4292    5.5611   -2.8681 H       1  UNL1        0.0583
     41 H          12.2225    7.5537   -4.2797 H       1  UNL1        0.0583
     42 H          12.2225    6.5437   -5.7055 H       1  UNL1        0.0583
     43 H          14.1158    8.6462   -5.0536 H       1  UNL1        0.0575
     44 H          14.1158    7.6361   -6.4794 H       1  UNL1        0.0575
     45 H          16.3491    6.8129   -5.8962 H       1  UNL1        0.0487
     46 H          16.3491    7.8230   -4.4704 H       1  UNL1        0.0487
     47 H          14.5287    9.4585   -6.6997 H       1  UNL1        0.0428
     48 H          15.6788    9.7559   -7.9810 H       1  UNL1        0.0428
     49 H          15.6788   10.7659   -6.5552 H       1  UNL1        0.0428
     50 H          18.0777   11.1657   -6.8384 H       1  UNL1        0.0371
     51 H          18.0777   10.1556   -8.2642 H       1  UNL1        0.0371
     52 H          20.3111    9.3324   -7.6810 H       1  UNL1        0.0426
     53 H          20.3111   10.3425   -6.2552 H       1  UNL1        0.0426
     54 H          20.1044   11.2909   -9.0184 H       1  UNL1        0.1182
     55 H          21.4644   11.3800   -8.0609 H       1  UNL1        0.1182
@<TRIPOS>BOND
     1     1     2    1
     2     2     3    1
     3     3     4    1
     4     4     5    1
     5     5     6    1
     6     6     7    1
     7     7     8    1
     8     8     9    1
     9     9    10    1
    10    10    11    1
    11    11    12    1
    12    12    13    1
    13    13    14    1
    14    14    15    1
    15    15    16    1
    16    16    17    1
    17    17    18    1
    18    17    19   am
    19    19    20    2
    20    19    21    1
    21    21    22    1
    22    22    23    1
    23     1    24    1
    24     1    25    1
    25     1    26    1
    26     3    27    1
    27     3    28    1
    28     4    29    1
    29     4    30    1
    30     6    31    1
    31     6    32    1
    32     7    33    1
    33     7    34    1
    34     9    35    1
    35     9    36    1
    36    10    37    1
    37    10    38    1
    38    12    39    1
    39    12    40    1
    40    13    41    1
    41    13    42    1
    42    15    43    1
    43    15    44    1
    44    16    45    1
    45    16    46    1
    46    18    47    1
    47    18    48    1
    48    18    49    1
    49    21    50    1
    50    21    51    1
    51    22    52    1
    52    22    53    1
    53    23    54    1
    54    23    55    1
