@<TRIPOS>MOLECULE
*****
 39 38 0 0 0
SMALL
GASTEIGER

@<TRIPOS>ATOM
      1 N           0.9910    0.0815   -0.0573 N.3     1  UNL1       -0.3279
      2 C           2.4610    0.0815   -0.0573 C.3     1  UNL1        0.0166
      3 C           2.9677   -1.3504   -0.1153 C.3     1  UNL1        0.0600
      4 O           4.3877   -1.3504   -0.1153 O.3     1  UNL1       -0.3763
      5 C           4.8610   -2.6881   -0.1695 C.3     1  UNL1        0.0711
      6 C           6.3810   -2.6881   -0.1695 C.3     1  UNL1        0.0711
      7 O           6.8543   -4.0258   -0.2236 O.3     1  UNL1       -0.3752
      8 C           8.2743   -4.0258   -0.2236 C.3     1  UNL1        0.0711
      9 C           8.7810   -5.4577   -0.2816 C.3     1  UNL1        0.0711
     10 O          10.2010   -5.4577   -0.2816 O.3     1  UNL1       -0.3752
     11 C          10.6743   -6.7954   -0.3358 C.3     1  UNL1        0.0711
     12 C          12.1943   -6.7954   -0.3358 C.3     1  UNL1        0.0711
     13 O          12.6676   -8.1331   -0.3900 O.3     1  UNL1       -0.3752
     14 C          14.0876   -8.1331   -0.3900 C.3     1  UNL1        0.0708
     15 C          14.5943   -9.5650   -0.4480 C.3     1  UNL1        0.0676
     16 O          16.0143   -9.5650   -0.4480 O.3     1  UNL1       -0.3927
     17 H           0.6510    1.0424   -0.0183 H       1  UNL1        0.1183
     18 H           0.6510   -0.4327    0.7554 H       1  UNL1        0.1183
     19 H           2.8177    0.5501    0.8361 H       1  UNL1        0.0444
     20 H           2.8177    0.6208   -0.9098 H       1  UNL1        0.0444
     21 H           2.6110   -1.8190   -1.0086 H       1  UNL1        0.0572
     22 H           2.6110   -1.8898    0.7372 H       1  UNL1        0.0572
     23 H           4.5043   -3.1567   -1.0628 H       1  UNL1        0.0583
     24 H           4.5043   -3.2275    0.6831 H       1  UNL1        0.0583
     25 H           6.7376   -2.2195    0.7239 H       1  UNL1        0.0583
     26 H           6.7377   -2.1488   -1.0220 H       1  UNL1        0.0583
     27 H           8.6310   -3.5572    0.6697 H       1  UNL1        0.0583
     28 H           8.6310   -3.4865   -1.0762 H       1  UNL1        0.0583
     29 H           8.4243   -5.9263   -1.1750 H       1  UNL1        0.0583
     30 H           8.4243   -5.9971    0.5709 H       1  UNL1        0.0583
     31 H          10.3176   -7.2640   -1.2292 H       1  UNL1        0.0583
     32 H          10.3176   -7.3347    0.5167 H       1  UNL1        0.0583
     33 H          12.5510   -6.3268    0.5575 H       1  UNL1        0.0583
     34 H          12.5510   -6.2560   -1.1883 H       1  UNL1        0.0583
     35 H          14.4443   -7.6645    0.5033 H       1  UNL1        0.0583
     36 H          14.4443   -7.5937   -1.2425 H       1  UNL1        0.0583
     37 H          14.2376  -10.0336   -1.3414 H       1  UNL1        0.0580
     38 H          14.2376  -10.1043    0.4045 H       1  UNL1        0.0580
     39 H          16.3376   -9.0760   -1.2209 H       1  UNL1        0.2095
@<TRIPOS>BOND
     1     1     2    1
     2     2     3    1
     3     3     4    1
     4     4     5    1
     5     5     6    1
     6     6     7    1
     7     7     8    1
     8     8     9    1
     9     9    10    1
    10    10    11    1
    11    11    12    1
    12    12    13    1
    13    13    14    1
    14    14    15    1
    15    15    16    1
    16     1    17    1
    17     1    18    1
    18     2    19    1
    19     2    20    1
    20     3    21    1
    21     3    22    1
    22     5    23    1
    23     5    24    1
    24     6    25    1
    25     6    26    1
    26     8    27    1
    27     8    28    1
    28     9    29    1
    29     9    30    1
    30    11    31    1
    31    11    32    1
    32    12    33    1
    33    12    34    1
    34    14    35    1
    35    14    36    1
    36    15    37    1
    37    15    38    1
    38    16    39    1
