@<TRIPOS>MOLECULE
*****
 24 24 0 0 0
SMALL
GASTEIGER

@<TRIPOS>ATOM
      1 C           1.0888    0.0364    0.0280 C.3     1  UNL1       -0.0570
      2 C           2.6088    0.0364    0.0280 C.3     1  UNL1        0.0213
      3 C           3.1155   -0.1307   -1.3953 C.2     1  UNL1        0.2154
      4 O           2.2896   -0.2434   -2.3547 O.2     1  UNL1       -0.2756
      5 N           4.5607   -0.1621   -1.6621 N.am    1  UNL1       -0.2991
      6 C           5.0507   -0.3237   -3.0385 C.3     1  UNL1        0.0272
      7 C           6.5707   -0.3237   -3.0385 C.3     1  UNL1        0.0118
      8 N           7.0607   -0.4853   -4.4150 N.3     1  UNL1       -0.3130
      9 C           8.5307   -0.4853   -4.4150 C.3     1  UNL1        0.0118
     10 C           5.5160   -0.0318   -0.5524 C.3     1  UNL1        0.0272
     11 H           0.7322    0.1540    1.0299 H       1  UNL1        0.0234
     12 H           0.7322   -0.8901   -0.3711 H       1  UNL1        0.0234
     13 H           0.7322    0.8453   -0.5748 H       1  UNL1        0.0234
     14 H           2.9655   -0.7725    0.6309 H       1  UNL1        0.0356
     15 H           2.9655    0.9629    0.4271 H       1  UNL1        0.0356
     16 H           4.6941    0.4852   -3.6414 H       1  UNL1        0.0477
     17 H           4.6941   -1.2502   -3.4376 H       1  UNL1        0.0477
     18 H           6.9274   -1.1326   -2.4357 H       1  UNL1        0.0439
     19 H           6.9274    0.6028   -2.6395 H       1  UNL1        0.0439
     20 H           6.7207    0.2857   -4.9897 H       1  UNL1        0.1220
     21 H           9.0855    0.3507   -4.7869 H       1  UNL1        0.0439
     22 H           9.3289   -1.1225   -4.7341 H       1  UNL1        0.0439
     23 H           5.5308    0.9080   -0.0409 H       1  UNL1        0.0477
     24 H           5.5356   -0.6191    0.3418 H       1  UNL1        0.0477
@<TRIPOS>BOND
     1     1     2    1
     2     2     3    1
     3     3     4    2
     4     3     5   am
     5     5     6    1
     6     6     7    1
     7     7     8    1
     8     8     9    1
     9     9    10    1
    10     5    10    1
    11     1    11    1
    12     1    12    1
    13     1    13    1
    14     2    14    1
    15     2    15    1
    16     6    16    1
    17     6    17    1
    18     7    18    1
    19     7    19    1
    20     8    20    1
    21     9    21    1
    22     9    22    1
    23    10    23    1
    24    10    24    1
