@<TRIPOS>MOLECULE
*****
 47 46 0 0 0
SMALL
GASTEIGER

@<TRIPOS>ATOM
      1 C           1.0561   -0.0601   -0.0570 C.3     1  UNL1       -0.0416
      2 C           2.5761   -0.0601   -0.0570 C.3     1  UNL1        0.0449
      3 O           3.0494    0.6049   -1.2189 O.3     1  UNL1       -0.3778
      4 C           4.4694    0.6049   -1.2189 C.3     1  UNL1        0.0710
      5 C           4.9761    1.3167   -2.4627 C.3     1  UNL1        0.0711
      6 O           6.3961    1.3167   -2.4627 O.3     1  UNL1       -0.3752
      7 C           6.8694    1.9817   -3.6247 C.3     1  UNL1        0.0711
      8 C           8.3894    1.9817   -3.6247 C.3     1  UNL1        0.0711
      9 O           8.8627    2.6467   -4.7866 O.3     1  UNL1       -0.3752
     10 C          10.2827    2.6467   -4.7866 C.3     1  UNL1        0.0711
     11 C          10.7894    3.3585   -6.0304 C.3     1  UNL1        0.0710
     12 O          12.2094    3.3585   -6.0304 O.3     1  UNL1       -0.3770
     13 C          12.6827    4.0235   -7.1924 C.3     1  UNL1        0.0560
     14 C          14.2027    4.0235   -7.1924 C.3     1  UNL1        0.0473
     15 C          14.7094    4.7353   -8.4362 C.2     1  UNL1        0.2153
     16 O          13.8835    5.2151   -9.2746 O.2     1  UNL1       -0.2757
     17 N          16.1546    4.8687   -8.6693 N.am    1  UNL1       -0.3131
     18 C          16.6446    5.5571   -9.8722 C.3     1  UNL1        0.0348
     19 C          18.1646    5.5571   -9.8722 C.3     1  UNL1        0.0597
     20 O          18.6380    6.2221  -11.0342 O.3     1  UNL1       -0.3935
     21 H           0.6994   -0.5611    0.8186 H       1  UNL1        0.0252
     22 H           0.6994   -0.5678   -0.9287 H       1  UNL1        0.0252
     23 H           0.6994    0.9487   -0.0608 H       1  UNL1        0.0252
     24 H           2.9328   -1.0689   -0.0531 H       1  UNL1        0.0557
     25 H           2.9328    0.4477    0.8148 H       1  UNL1        0.0557
     26 H           4.8261   -0.4039   -1.2151 H       1  UNL1        0.0583
     27 H           4.8261    1.1126   -0.3472 H       1  UNL1        0.0583
     28 H           4.6194    2.3255   -2.4666 H       1  UNL1        0.0583
     29 H           4.6194    0.8090   -3.3344 H       1  UNL1        0.0583
     30 H           6.5128    2.9905   -3.6285 H       1  UNL1        0.0583
     31 H           6.5128    1.4740   -4.4964 H       1  UNL1        0.0583
     32 H           8.7461    0.9729   -3.6208 H       1  UNL1        0.0583
     33 H           8.7461    2.4894   -2.7530 H       1  UNL1        0.0583
     34 H          10.6394    1.6379   -4.7828 H       1  UNL1        0.0583
     35 H          10.6394    3.1544   -3.9149 H       1  UNL1        0.0583
     36 H          10.4327    4.3673   -6.0343 H       1  UNL1        0.0583
     37 H          10.4327    2.8508   -6.9022 H       1  UNL1        0.0583
     38 H          12.3261    5.0323   -7.1962 H       1  UNL1        0.0564
     39 H          12.3261    3.5157   -8.0641 H       1  UNL1        0.0564
     40 H          14.5594    3.0147   -7.1886 H       1  UNL1        0.0381
     41 H          14.5594    4.5312   -6.3207 H       1  UNL1        0.0381
     42 H          16.7944    4.4970   -8.0199 H       1  UNL1        0.1488
     43 H          16.2880    6.5659   -9.8761 H       1  UNL1        0.0484
     44 H          16.2880    5.0494  -10.7439 H       1  UNL1        0.0484
     45 H          18.5213    4.5483   -9.8684 H       1  UNL1        0.0573
     46 H          18.5213    6.0648   -9.0005 H       1  UNL1        0.0573
     47 H          18.3146    5.7618  -11.8244 H       1  UNL1        0.2095
@<TRIPOS>BOND
     1     1     2    1
     2     2     3    1
     3     3     4    1
     4     4     5    1
     5     5     6    1
     6     6     7    1
     7     7     8    1
     8     8     9    1
     9     9    10    1
    10    10    11    1
    11    11    12    1
    12    12    13    1
    13    13    14    1
    14    14    15    1
    15    15    16    2
    16    15    17   am
    17    17    18    1
    18    18    19    1
    19    19    20    1
    20     1    21    1
    21     1    22    1
    22     1    23    1
    23     2    24    1
    24     2    25    1
    25     4    26    1
    26     4    27    1
    27     5    28    1
    28     5    29    1
    29     7    30    1
    30     7    31    1
    31     8    32    1
    32     8    33    1
    33    10    34    1
    34    10    35    1
    35    11    36    1
    36    11    37    1
    37    13    38    1
    38    13    39    1
    39    14    40    1
    40    14    41    1
    41    17    42    1
    42    18    43    1
    43    18    44    1
    44    19    45    1
    45    19    46    1
    46    20    47    1
