@<TRIPOS>MOLECULE
*****
 13 12 0 0 0
SMALL
GASTEIGER

@<TRIPOS>ATOM
      1 C           0.9793    0.0229   -0.0951 C.1     1  UNL1       -0.1192
      2 C           2.2831    0.0229   -0.0951 C.1     1  UNL1       -0.1056
      3 C           3.8031    0.0229   -0.0951 C.3     1  UNL1        0.0086
      4 C           4.3098    1.2434    0.6559 C.3     1  UNL1       -0.0450
      5 C           5.8298    1.2434    0.6559 C.3     1  UNL1       -0.0644
      6 H          -0.0147    0.0229   -0.0951 H       1  UNL1        0.1228
      7 H           4.1598    0.0512   -1.1035 H       1  UNL1        0.0397
      8 H           4.1598   -0.8645    0.3846 H       1  UNL1        0.0397
      9 H           3.9531    1.2152    1.6643 H       1  UNL1        0.0272
     10 H           3.9531    2.1309    0.1762 H       1  UNL1        0.0272
     11 H           6.1864    0.3560    1.1356 H       1  UNL1        0.0230
     12 H           6.1864    2.1026    1.1846 H       1  UNL1        0.0230
     13 H           6.1864    1.2717   -0.3525 H       1  UNL1        0.0230
@<TRIPOS>BOND
     1     1     2    3
     2     2     3    1
     3     3     4    1
     4     4     5    1
     5     1     6    1
     6     3     7    1
     7     3     8    1
     8     4     9    1
     9     4    10    1
    10     5    11    1
    11     5    12    1
    12     5    13    1
