@<TRIPOS>MOLECULE
*****
 12 11 0 0 0
SMALL
GASTEIGER

@<TRIPOS>ATOM
      1 N           1.0991   -0.0004    0.0134 N.3     1  UNL1       -0.3296
      2 C           2.5691   -0.0004    0.0134 C.3     1  UNL1       -0.0005
      3 C           3.0758    1.2622   -0.6643 C.3     1  UNL1        0.0151
      4 C           4.5958    1.2622   -0.6643 C.2     1  UNL1        0.1215
      5 O           5.2312    2.2320   -1.1848 O.2     1  UNL1       -0.3010
      6 H           0.7591   -0.8478    0.4682 H       1  UNL1        0.1182
      7 H           0.7591    0.0294   -0.9478 H       1  UNL1        0.1182
      8 H           2.9258   -0.8580   -0.5178 H       1  UNL1        0.0426
      9 H           2.9258   -0.0317    1.0218 H       1  UNL1        0.0426
     10 H           2.7191    2.1198   -0.1330 H       1  UNL1        0.0351
     11 H           2.7191    1.2935   -1.6726 H       1  UNL1        0.0351
     12 H           5.1118    0.4748   -0.2416 H       1  UNL1        0.1027
@<TRIPOS>BOND
     1     1     2    1
     2     2     3    1
     3     3     4    1
     4     4     5    2
     5     1     6    1
     6     1     7    1
     7     2     8    1
     8     2     9    1
     9     3    10    1
    10     3    11    1
    11     4    12    1
