@<TRIPOS>MOLECULE
*****
 19 18 0 0 0
SMALL
GASTEIGER

@<TRIPOS>ATOM
      1 C           0.9091   -0.0335    0.0249 C.3     1  UNL1       -0.0653
      2 C           2.4291   -0.0335    0.0249 C.3     1  UNL1       -0.0559
      3 C           2.9358   -1.4458    0.2684 C.3     1  UNL1       -0.0522
      4 C           4.4558   -1.4458    0.2684 C.3     1  UNL1       -0.0407
      5 C           4.9625   -2.8580    0.5119 C.3     1  UNL1       -0.0069
      6 N           6.4325   -2.8580    0.5119 N.3     1  UNL1       -0.3300
      7 H           0.5525    0.9606   -0.1465 H       1  UNL1        0.0230
      8 H           0.5525   -0.3822    0.9716 H       1  UNL1        0.0230
      9 H           0.5525   -0.6790   -0.7503 H       1  UNL1        0.0230
     10 H           2.7858    0.6120    0.8002 H       1  UNL1        0.0263
     11 H           2.7858    0.3151   -0.9217 H       1  UNL1        0.0263
     12 H           2.5791   -2.0913   -0.5068 H       1  UNL1        0.0266
     13 H           2.5791   -1.7944    1.2151 H       1  UNL1        0.0266
     14 H           4.8125   -0.8003    1.0437 H       1  UNL1        0.0277
     15 H           4.8125   -1.0971   -0.6782 H       1  UNL1        0.0277
     16 H           4.6058   -3.5035   -0.2633 H       1  UNL1        0.0422
     17 H           4.6058   -3.2066    1.4586 H       1  UNL1        0.0422
     18 H           6.7725   -2.5257   -0.3905 H       1  UNL1        0.1182
     19 H           6.7725   -3.8057    0.6753 H       1  UNL1        0.1182
@<TRIPOS>BOND
     1     1     2    1
     2     2     3    1
     3     3     4    1
     4     4     5    1
     5     5     6    1
     6     1     7    1
     7     1     8    1
     8     1     9    1
     9     2    10    1
    10     2    11    1
    11     3    12    1
    12     3    13    1
    13     4    14    1
    14     4    15    1
    15     5    16    1
    16     5    17    1
    17     6    18    1
    18     6    19    1
