@<TRIPOS>MOLECULE
*****
 64 66 0 0 0
SMALL
GASTEIGER

@<TRIPOS>ATOM
      1 C           1.0751    0.0003    0.0661 C.3     1  UNL1       -0.0652
      2 C           2.5951    0.0003    0.0661 C.3     1  UNL1       -0.0545
      3 C           3.1017    1.1694   -0.7627 C.3     1  UNL1       -0.0373
      4 C           4.6217    1.1694   -0.7627 C.3     1  UNL1        0.0165
      5 N           5.1117    2.3000   -1.5642 N.am    1  UNL1       -0.2811
      6 C           4.1565    3.2115   -2.2104 C.3     1  UNL1        0.0412
      7 C           2.7380    2.7660   -1.8945 C.ar    1  UNL1       -0.0301
      8 C           1.6178    3.5045   -2.4181 C.ar    1  UNL1       -0.0571
      9 C           0.2738    3.0823   -2.1188 C.ar    1  UNL1       -0.0615
     10 C          -0.8464    3.8208   -2.6423 C.ar    1  UNL1       -0.0617
     11 C          -2.1904    3.3986   -2.3430 C.ar    1  UNL1       -0.0615
     12 C           2.5141    1.6053   -1.0718 C.ar    1  UNL1       -0.0571
     13 C           6.5570    2.5192   -1.7196 C.2     1  UNL1        0.3067
     14 O           7.3828    1.7311   -1.1609 O.2     1  UNL1       -0.2523
     15 N           7.0470    3.6498   -2.5211 N.am    1  UNL1       -0.2693
     16 C           8.4922    3.8690   -2.6764 C.ar    1  UNL1        0.0350
     17 C           8.9723    4.9767   -3.4617 C.ar    1  UNL1       -0.0370
     18 C          10.3882    5.1914   -3.6139 C.ar    1  UNL1       -0.0182
     19 C          10.8683    6.2991   -4.3992 C.ar    1  UNL1        0.1206
     20 O           9.9455    7.1796   -5.0234 O.3     1  UNL1       -0.4919
     21 C           8.5494    6.9679   -4.8733 C.3     1  UNL1        0.0913
     22 C           7.7894    8.0418   -5.6346 C.3     1  UNL1        0.0010
     23 C           6.2950    7.8152   -5.4740 C.3     1  UNL1        0.0463
     24 N           5.5600    8.8538   -6.2102 N.ar    1  UNL1       -0.2513
     25 C           4.1672    8.8538   -6.2102 C.ar    1  UNL1        0.0499
     26 C           3.4471    9.8713   -6.9315 C.ar    1  UNL1        0.0963
     27 C           4.2071   10.9452   -7.6928 C.3     1  UNL1        0.0393
     28 N           5.6524   10.7261   -7.5374 N.3     1  UNL1       -0.3248
     29 N           2.0543    9.8713   -6.9315 N.ar    1  UNL1       -0.1332
     30 N           6.2328    9.8044   -6.8841 N.ar    1  UNL1       -0.0654
     31 C          12.2842    6.5138   -4.5514 C.ar    1  UNL1       -0.0182
     32 C           9.4281    2.9759   -2.0434 C.ar    1  UNL1       -0.0370
     33 H           0.7184   -0.8227    0.6495 H       1  UNL1        0.0230
     34 H           0.7184   -0.0935   -0.9384 H       1  UNL1        0.0230
     35 H           0.7184    0.9170    0.4871 H       1  UNL1        0.0230
     36 H           2.9517   -0.9165   -0.3550 H       1  UNL1        0.0263
     37 H           2.9517    0.0940    1.0705 H       1  UNL1        0.0263
     38 H           2.7451    2.0861   -0.3417 H       1  UNL1        0.0280
     39 H           2.7451    1.0756   -1.7671 H       1  UNL1        0.0280
     40 H           4.9784    0.2526   -1.1837 H       1  UNL1        0.0465
     41 H           4.9784    1.2631    0.2417 H       1  UNL1        0.0465
     42 H           4.3081    3.1948   -3.2695 H       1  UNL1        0.0514
     43 H           4.3081    4.2054   -1.8440 H       1  UNL1        0.0514
     44 H           1.7782    4.3361   -3.0076 H       1  UNL1        0.0621
     45 H           0.1134    2.2506   -1.5292 H       1  UNL1        0.0618
     46 H          -0.6860    4.6525   -3.2319 H       1  UNL1        0.0618
     47 H          -3.2218    3.4279   -2.3638 H       1  UNL1        0.0618
     48 H           2.9987    0.8620   -0.5448 H       1  UNL1        0.0621
     49 H           6.4072    4.2603   -2.9539 H       1  UNL1        0.1564
     50 H           8.3016    5.6166   -3.9154 H       1  UNL1        0.0637
     51 H          11.0589    4.5515   -3.1603 H       1  UNL1        0.0655
     52 H           8.2909    7.0155   -3.8361 H       1  UNL1        0.0697
     53 H           8.2909    6.0049   -5.2615 H       1  UNL1        0.0697
     54 H           8.0479    7.9943   -6.6718 H       1  UNL1        0.0316
     55 H           8.0479    9.0048   -5.2464 H       1  UNL1        0.0316
     56 H           6.0365    7.8628   -4.4367 H       1  UNL1        0.0510
     57 H           6.0365    6.8523   -5.8622 H       1  UNL1        0.0510
     58 H           3.6512    8.1247   -5.6933 H       1  UNL1        0.0845
     59 H           3.9486   11.9082   -7.3046 H       1  UNL1        0.0488
     60 H           3.9486   10.8977   -8.7300 H       1  UNL1        0.0488
     61 H           5.8988   10.7714   -6.5487 H       1  UNL1        0.1186
     62 H           6.1624   11.4467   -8.0483 H       1  UNL1        0.1186
     63 H          13.1440    6.9795   -4.8815 H       1  UNL1        0.0655
     64 H           9.4925    2.1357   -1.4477 H       1  UNL1        0.0637
@<TRIPOS>BOND
     1     1     2    1
     2     2     3    1
     3     3     4    1
     4     4     5    1
     5     5     6    1
     6     6     7    1
     7     7     8   ar
     8     8     9   ar
     9     9    10   ar
    10    10    11   ar
    11    11    12   ar
    12     7    12   ar
    13     5    13   am
    14    13    14    2
    15    13    15   am
    16    15    16    1
    17    16    17   ar
    18    17    18   ar
    19    18    19   ar
    20    19    20    1
    21    20    21    1
    22    21    22    1
    23    22    23    1
    24    23    24    1
    25    24    25   ar
    26    25    26   ar
    27    26    27    1
    28    27    28    1
    29    26    29   ar
    30    29    30   ar
    31    24    30   ar
    32    19    31   ar
    33    31    32   ar
    34    16    32   ar
    35     1    33    1
    36     1    34    1
    37     1    35    1
    38     2    36    1
    39     2    37    1
    40     3    38    1
    41     3    39    1
    42     4    40    1
    43     4    41    1
    44     6    42    1
    45     6    43    1
    46     8    44    1
    47     9    45    1
    48    10    46    1
    49    11    47    1
    50    12    48    1
    51    15    49    1
    52    17    50    1
    53    18    51    1
    54    21    52    1
    55    21    53    1
    56    22    54    1
    57    22    55    1
    58    23    56    1
    59    23    57    1
    60    25    58    1
    61    27    59    1
    62    27    60    1
    63    28    61    1
    64    28    62    1
    65    31    63    1
    66    32    64    1
