@<TRIPOS>MOLECULE
*****
 31 32 0 0 0
SMALL
GASTEIGER

@<TRIPOS>ATOM
      1 C           1.0786   -0.0599   -0.0156 C.3     1  UNL1       -0.0027
      2 C           2.5986   -0.0599   -0.0156 C.3     1  UNL1       -0.0247
      3 C           3.1052    0.1382   -1.4349 C.3     1  UNL1        0.0128
      4 N           2.6152    1.4227   -1.9553 N.3     1  UNL1       -0.2969
      5 C           1.1452    1.4227   -1.9553 C.3     1  UNL1        0.0118
      6 C           0.6386    2.7509   -2.4934 C.3     1  UNL1        0.0087
      7 N          -0.8314    2.7509   -2.4934 N.3     1  UNL1       -0.3136
      8 C          -1.3214    4.0354   -3.0139 C.3     1  UNL1        0.0087
      9 C           3.1052    1.6143   -3.3279 C.3     1  UNL1        0.0118
     10 C           4.6252    0.1382   -1.4349 C.3     1  UNL1       -0.0247
     11 C           5.1319    0.3363   -2.8542 C.3     1  UNL1       -0.0027
     12 N           0.5886   -0.2514    1.3571 N.3     1  UNL1       -0.3159
     13 H           0.7219   -0.8554   -0.6359 H       1  UNL1        0.0424
     14 H           0.7219    0.8751   -0.3944 H       1  UNL1        0.0424
     15 H           2.9552   -0.9949    0.3632 H       1  UNL1        0.0293
     16 H           2.9552    0.7357    0.6047 H       1  UNL1        0.0293
     17 H           2.7486   -0.6574   -2.0552 H       1  UNL1        0.0463
     18 H           0.7886    1.2833   -0.9562 H       1  UNL1        0.0439
     19 H           0.7886    0.6271   -2.5756 H       1  UNL1        0.0439
     20 H           0.9952    2.8903   -3.4926 H       1  UNL1        0.0437
     21 H           0.9952    3.5464   -1.8731 H       1  UNL1        0.0437
     22 H          -1.1714    2.6180   -1.5410 H       1  UNL1        0.1220
     23 H          -1.4583    4.8885   -2.3827 H       1  UNL1        0.0437
     24 H          -2.0918    4.4312   -3.6422 H       1  UNL1        0.0437
     25 H           3.9860    2.2070   -3.4616 H       1  UNL1        0.0439
     26 H           3.4198    0.8783   -4.0381 H       1  UNL1        0.0439
     27 H           4.9819   -0.7968   -1.0561 H       1  UNL1        0.0293
     28 H           4.9819    0.9337   -0.8146 H       1  UNL1        0.0293
     29 H           5.4700   -0.4575   -3.4870 H       1  UNL1        0.0424
     30 H           5.6345    0.9863   -3.5396 H       1  UNL1        0.0424
     31 H           0.2662    0.5053    1.9603 H       1  UNL1        0.1219
@<TRIPOS>BOND
     1     1     2    1
     2     2     3    1
     3     3     4    1
     4     4     5    1
     5     5     6    1
     6     6     7    1
     7     7     8    1
     8     8     9    1
     9     4     9    1
    10     3    10    1
    11    10    11    1
    12    11    12    1
    13     1    12    1
    14     1    13    1
    15     1    14    1
    16     2    15    1
    17     2    16    1
    18     3    17    1
    19     5    18    1
    20     5    19    1
    21     6    20    1
    22     6    21    1
    23     7    22    1
    24     8    23    1
    25     8    24    1
    26     9    25    1
    27     9    26    1
    28    10    27    1
    29    10    28    1
    30    11    29    1
    31    11    30    1
    32    12    31    1
