@<TRIPOS>MOLECULE
*****
 39 38 0 0 0
SMALL
GASTEIGER

@<TRIPOS>ATOM
      1 N           1.0583   -0.0436   -0.0685 N.3     1  UNL1       -0.3300
      2 C           2.5283   -0.0436   -0.0685 C.3     1  UNL1       -0.0069
      3 C           3.0350    1.0902    0.8080 C.3     1  UNL1       -0.0406
      4 C           4.5550    1.0902    0.8080 C.3     1  UNL1       -0.0519
      5 C           5.0617    2.2239    1.6845 C.3     1  UNL1       -0.0530
      6 C           6.5817    2.2239    1.6845 C.3     1  UNL1       -0.0531
      7 C           7.0883    3.3577    2.5609 C.3     1  UNL1       -0.0531
      8 C           8.6083    3.3577    2.5609 C.3     1  UNL1       -0.0531
      9 C           9.1150    4.4915    3.4374 C.3     1  UNL1       -0.0530
     10 C          10.6350    4.4915    3.4374 C.3     1  UNL1       -0.0527
     11 C          11.1416    5.6253    4.3139 C.3     1  UNL1       -0.0466
     12 C          12.6616    5.6253    4.3139 C.3     1  UNL1        0.0028
     13 C          13.1683    6.7591    5.1904 C.2     1  UNL1        0.1203
     14 O          14.4178    6.9428    5.3324 O.2     1  UNL1       -0.3010
     15 H           0.7183   -0.8044   -0.6567 H       1  UNL1        0.1182
     16 H           0.7183    0.8462   -0.4333 H       1  UNL1        0.1182
     17 H           2.8850    0.0917   -1.0682 H       1  UNL1        0.0422
     18 H           2.8850   -0.9770    0.3142 H       1  UNL1        0.0422
     19 H           2.6783    0.9549    1.8077 H       1  UNL1        0.0277
     20 H           2.6783    2.0236    0.4253 H       1  UNL1        0.0277
     21 H           4.9117    1.2254   -0.1917 H       1  UNL1        0.0266
     22 H           4.9117    0.1568    1.1907 H       1  UNL1        0.0266
     23 H           4.7050    2.0887    2.6842 H       1  UNL1        0.0265
     24 H           4.7050    3.1573    1.3018 H       1  UNL1        0.0265
     25 H           6.9383    2.3592    0.6848 H       1  UNL1        0.0265
     26 H           6.9383    1.2905    2.0672 H       1  UNL1        0.0265
     27 H           6.7317    3.2225    3.5606 H       1  UNL1        0.0265
     28 H           6.7316    4.2911    2.1783 H       1  UNL1        0.0265
     29 H           8.9650    3.4930    1.5613 H       1  UNL1        0.0265
     30 H           8.9650    2.4243    2.9436 H       1  UNL1        0.0265
     31 H           8.7583    4.3562    4.4371 H       1  UNL1        0.0265
     32 H           8.7583    5.4249    3.0547 H       1  UNL1        0.0265
     33 H          10.9916    4.6268    2.4377 H       1  UNL1        0.0265
     34 H          10.9916    3.5581    3.8201 H       1  UNL1        0.0265
     35 H          10.7850    5.4900    5.3136 H       1  UNL1        0.0269
     36 H          10.7850    6.5587    3.9312 H       1  UNL1        0.0269
     37 H          13.0183    5.7606    3.3142 H       1  UNL1        0.0339
     38 H          13.0183    4.6919    4.6966 H       1  UNL1        0.0339
     39 H          12.4977    7.3797    5.6702 H       1  UNL1        0.1026
@<TRIPOS>BOND
     1     1     2    1
     2     2     3    1
     3     3     4    1
     4     4     5    1
     5     5     6    1
     6     6     7    1
     7     7     8    1
     8     8     9    1
     9     9    10    1
    10    10    11    1
    11    11    12    1
    12    12    13    1
    13    13    14    2
    14     1    15    1
    15     1    16    1
    16     2    17    1
    17     2    18    1
    18     3    19    1
    19     3    20    1
    20     4    21    1
    21     4    22    1
    22     5    23    1
    23     5    24    1
    24     6    25    1
    25     6    26    1
    26     7    27    1
    27     7    28    1
    28     8    29    1
    29     8    30    1
    30     9    31    1
    31     9    32    1
    32    10    33    1
    33    10    34    1
    34    11    35    1
    35    11    36    1
    36    12    37    1
    37    12    38    1
    38    13    39    1
