@<TRIPOS>MOLECULE
*****
 34 33 0 0 0
SMALL
GASTEIGER

@<TRIPOS>ATOM
      1 O           0.9118   -0.0433   -0.0185 O.2     1  UNL1       -0.2795
      2 C           2.1827   -0.0433   -0.0185 C.2     1  UNL1        0.2000
      3 N           2.9177   -1.2996   -0.2243 N.am    1  UNL1       -0.3157
      4 C           4.3877   -1.2996   -0.2243 C.3     1  UNL1        0.0348
      5 C           4.8943   -2.7138   -0.4559 C.3     1  UNL1        0.0632
      6 O           6.3143   -2.7138   -0.4559 O.3     1  UNL1       -0.3760
      7 C           6.7877   -4.0350   -0.6723 C.3     1  UNL1        0.0711
      8 C           8.3077   -4.0350   -0.6723 C.3     1  UNL1        0.0711
      9 O           8.7810   -5.3562   -0.8887 O.3     1  UNL1       -0.3752
     10 C          10.2010   -5.3562   -0.8887 C.3     1  UNL1        0.0711
     11 C          10.7076   -6.7704   -1.1204 C.3     1  UNL1        0.0711
     12 O          12.1276   -6.7704   -1.1204 O.3     1  UNL1       -0.3752
     13 C          12.6010   -8.0916   -1.3368 C.3     1  UNL1        0.0708
     14 C          14.1210   -8.0916   -1.3368 C.3     1  UNL1        0.0676
     15 O          14.5943   -9.4128   -1.5532 O.3     1  UNL1       -0.3927
     16 H           2.6987    0.8387    0.1260 H       1  UNL1        0.1251
     17 H           2.4254   -2.1410   -0.3621 H       1  UNL1        0.1485
     18 H           4.7443   -0.9430    0.7194 H       1  UNL1        0.0484
     19 H           4.7443   -0.6606   -1.0049 H       1  UNL1        0.0484
     20 H           4.5377   -3.0704   -1.3996 H       1  UNL1        0.0575
     21 H           4.5377   -3.3528    0.3247 H       1  UNL1        0.0575
     22 H           6.4310   -4.3915   -1.6160 H       1  UNL1        0.0583
     23 H           6.4310   -4.6740    0.1083 H       1  UNL1        0.0583
     24 H           8.6643   -3.6785    0.2714 H       1  UNL1        0.0583
     25 H           8.6643   -3.3960   -1.4530 H       1  UNL1        0.0583
     26 H          10.5577   -4.9996    0.0550 H       1  UNL1        0.0583
     27 H          10.5577   -4.7172   -1.6694 H       1  UNL1        0.0583
     28 H          10.3510   -7.1270   -2.0641 H       1  UNL1        0.0583
     29 H          10.3510   -7.4094   -0.3398 H       1  UNL1        0.0583
     30 H          12.2443   -8.4481   -2.2805 H       1  UNL1        0.0583
     31 H          12.2443   -8.7306   -0.5562 H       1  UNL1        0.0583
     32 H          14.4776   -7.7350   -0.3931 H       1  UNL1        0.0580
     33 H          14.4776   -7.4526   -2.1174 H       1  UNL1        0.0580
     34 H          14.2710   -9.9920   -0.8455 H       1  UNL1        0.2095
@<TRIPOS>BOND
     1     1     2    2
     2     2     3   am
     3     3     4    1
     4     4     5    1
     5     5     6    1
     6     6     7    1
     7     7     8    1
     8     8     9    1
     9     9    10    1
    10    10    11    1
    11    11    12    1
    12    12    13    1
    13    13    14    1
    14    14    15    1
    15     2    16    1
    16     3    17    1
    17     4    18    1
    18     4    19    1
    19     5    20    1
    20     5    21    1
    21     7    22    1
    22     7    23    1
    23     8    24    1
    24     8    25    1
    25    10    26    1
    26    10    27    1
    27    11    28    1
    28    11    29    1
    29    13    30    1
    30    13    31    1
    31    14    32    1
    32    14    33    1
    33    15    34    1
