@<TRIPOS>MOLECULE
*****
 8 7 0 0 0
SMALL
GASTEIGER

@<TRIPOS>ATOM
      1 C           1.0219    0.0772    0.0597 C.3     1  UNL1       -0.0681
      2 C           2.5419    0.0772    0.0597 C.3     1  UNL1       -0.0681
      3 H           0.6652    0.7447    0.8161 H       1  UNL1        0.0227
      4 H           0.6652   -0.9116    0.2597 H       1  UNL1        0.0227
      5 H           0.6652    0.3984   -0.8966 H       1  UNL1        0.0227
      6 H           2.8985   -0.2441    1.0160 H       1  UNL1        0.0227
      7 H           2.8985    1.0660   -0.1402 H       1  UNL1        0.0227
      8 H           2.8986   -0.5904   -0.6966 H       1  UNL1        0.0227
@<TRIPOS>BOND
     1     1     2    1
     2     1     3    1
     3     1     4    1
     4     1     5    1
     5     2     6    1
     6     2     7    1
     7     2     8    1
