@<TRIPOS>MOLECULE
*****
 14 13 0 0 0
SMALL
GASTEIGER

@<TRIPOS>ATOM
      1 C           1.0233    0.0656    0.0718 C.3     1  UNL1       -0.0653
      2 C           2.5433    0.0656    0.0718 C.3     1  UNL1       -0.0562
      3 C           3.0499    0.7628    1.3239 C.3     1  UNL1       -0.0562
      4 C           4.5699    0.7628    1.3239 C.3     1  UNL1       -0.0653
      5 H           0.6666   -0.4252   -0.8096 H       1  UNL1        0.0230
      6 H           0.6666    1.0743    0.0875 H       1  UNL1        0.0230
      7 H           0.6666   -0.4523    0.9375 H       1  UNL1        0.0230
      8 H           2.8999    0.5835   -0.7939 H       1  UNL1        0.0263
      9 H           2.8999   -0.9431    0.0562 H       1  UNL1        0.0263
     10 H           2.6933    0.2449    2.1896 H       1  UNL1        0.0263
     11 H           2.6933    1.7715    1.3395 H       1  UNL1        0.0263
     12 H           4.9266   -0.2459    1.3082 H       1  UNL1        0.0230
     13 H           4.9266    1.2536    2.2052 H       1  UNL1        0.0230
     14 H           4.9266    1.2807    0.4581 H       1  UNL1        0.0230
@<TRIPOS>BOND
     1     1     2    1
     2     2     3    1
     3     3     4    1
     4     1     5    1
     5     1     6    1
     6     1     7    1
     7     2     8    1
     8     2     9    1
     9     3    10    1
    10     3    11    1
    11     4    12    1
    12     4    13    1
    13     4    14    1
