@<TRIPOS>MOLECULE
*****
 23 23 0 0 0
SMALL
GASTEIGER

@<TRIPOS>ATOM
      1 C           1.0574    0.0684    0.0450 C.3     1  UNL1       -0.0623
      2 C           2.5774    0.0684    0.0450 C.3     1  UNL1       -0.0416
      3 C           3.0841   -0.9069   -1.0051 C.3     1  UNL1       -0.0376
      4 C           4.6041   -0.9069   -1.0051 C.3     1  UNL1       -0.0012
      5 N           5.0941   -1.8500   -2.0205 N.3     1  UNL1       -0.3053
      6 C           4.6041   -1.4422   -3.3451 C.3     1  UNL1       -0.0128
      7 C           6.5641   -1.8500   -2.0205 C.3     1  UNL1       -0.0012
      8 C           3.0841   -0.3533    1.4146 C.3     1  UNL1       -0.0376
      9 H           0.7008    0.3653   -0.9192 H       1  UNL1        0.0232
     10 H           0.7008    0.7549    0.7841 H       1  UNL1        0.0232
     11 H           0.7008   -0.9150    0.2699 H       1  UNL1        0.0232
     12 H           2.9341    1.0518   -0.1800 H       1  UNL1        0.0299
     13 H           2.7274   -0.6100   -1.9692 H       1  UNL1        0.0280
     14 H           2.7274   -1.8903   -0.7801 H       1  UNL1        0.0280
     15 H           4.9608   -1.2037   -0.0409 H       1  UNL1        0.0426
     16 H           4.9608    0.0765   -1.2300 H       1  UNL1        0.0426
     17 H           3.5341   -1.4422   -3.3451 H       1  UNL1        0.0391
     18 H           4.9608   -2.1287   -4.0843 H       1  UNL1        0.0391
     19 H           4.9608   -0.4588   -3.5701 H       1  UNL1        0.0391
     20 H           7.1304   -1.1478   -2.5959 H       1  UNL1        0.0426
     21 H           7.3864   -2.5279   -2.1163 H       1  UNL1        0.0426
     22 H           3.3628    0.4185    2.1013 H       1  UNL1        0.0280
     23 H           2.5904   -0.9269    2.1710 H       1  UNL1        0.0280
@<TRIPOS>BOND
     1     1     2    1
     2     2     3    1
     3     3     4    1
     4     4     5    1
     5     5     6    1
     6     5     7    1
     7     7     8    1
     8     2     8    1
     9     1     9    1
    10     1    10    1
    11     1    11    1
    12     2    12    1
    13     3    13    1
    14     3    14    1
    15     4    15    1
    16     4    16    1
    17     6    17    1
    18     6    18    1
    19     6    19    1
    20     7    20    1
    21     7    21    1
    22     8    22    1
    23     8    23    1
