@<TRIPOS>MOLECULE
*****
 9 8 0 0 0
SMALL
GASTEIGER

@<TRIPOS>ATOM
      1 C           0.9731   -0.0291    0.0918 C.3     1  UNL1       -0.0002
      2 N           2.4431   -0.0291    0.0918 N.am    1  UNL1       -0.3209
      3 C           3.1781    0.9320   -0.7431 C.2     1  UNL1        0.1997
      4 O           4.4490    0.9320   -0.7431 O.2     1  UNL1       -0.2795
      5 H           0.6164   -0.7906    0.7534 H       1  UNL1        0.0426
      6 H           0.6164   -0.2212   -0.8985 H       1  UNL1        0.0426
      7 H           0.6164    0.9247    0.4206 H       1  UNL1        0.0426
      8 H           2.9353   -0.6727    0.6510 H       1  UNL1        0.1481
      9 H           2.6621    1.6067   -1.3292 H       1  UNL1        0.1251
@<TRIPOS>BOND
     1     1     2    1
     2     2     3   am
     3     3     4    2
     4     1     5    1
     5     1     6    1
     6     1     7    1
     7     2     8    1
     8     3     9    1
