@<TRIPOS>MOLECULE
*****
 34 33 0 0 0
SMALL
GASTEIGER

@<TRIPOS>ATOM
      1 O           0.9708    0.0685   -0.0668 O.2     1  UNL1       -0.2795
      2 C           2.2417    0.0685   -0.0668 C.2     1  UNL1        0.2000
      3 N           2.9767    1.2667   -0.4969 N.am    1  UNL1       -0.3157
      4 C           4.4467    1.2667   -0.4969 C.3     1  UNL1        0.0348
      5 C           4.9533    2.6155   -0.9811 C.3     1  UNL1        0.0632
      6 O           6.3733    2.6155   -0.9811 O.3     1  UNL1       -0.3760
      7 C           6.8467    3.8755   -1.4335 C.3     1  UNL1        0.0711
      8 C           8.3667    3.8755   -1.4335 C.3     1  UNL1        0.0711
      9 O           8.8400    5.1356   -1.8858 O.3     1  UNL1       -0.3760
     10 C          10.2600    5.1356   -1.8858 C.3     1  UNL1        0.0633
     11 C          10.7667    6.4844   -2.3700 C.3     1  UNL1        0.0351
     12 N          12.2367    6.4844   -2.3700 N.am    1  UNL1       -0.3112
     13 C          12.9717    7.6825   -2.8002 C.2     1  UNL1        0.2386
     14 O          12.3362    8.7185   -3.1720 O.2     1  UNL1       -0.2733
     15 C          14.4917    7.6825   -2.8002 C.3     1  UNL1        0.1202
     16 O          14.9650    8.9426   -3.2525 O.3     1  UNL1       -0.3858
     17 H           2.7577   -0.7727    0.2352 H       1  UNL1        0.1251
     18 H           2.4844    2.0691   -0.7850 H       1  UNL1        0.1485
     19 H           4.8034    0.4967   -1.1487 H       1  UNL1        0.0484
     20 H           4.8034    1.0871    0.4958 H       1  UNL1        0.0484
     21 H           4.5967    3.3854   -0.3293 H       1  UNL1        0.0575
     22 H           4.5967    2.7950   -1.9738 H       1  UNL1        0.0575
     23 H           6.4900    4.6454   -0.7816 H       1  UNL1        0.0583
     24 H           6.4900    4.0551   -2.4262 H       1  UNL1        0.0583
     25 H           8.7233    3.1056   -2.0853 H       1  UNL1        0.0583
     26 H           8.7233    3.6960   -0.4408 H       1  UNL1        0.0583
     27 H          10.6167    4.3656   -2.5377 H       1  UNL1        0.0575
     28 H          10.6167    4.9560   -0.8931 H       1  UNL1        0.0575
     29 H          10.4100    7.2543   -1.7182 H       1  UNL1        0.0484
     30 H          10.4100    6.6639   -3.3627 H       1  UNL1        0.0484
     31 H          12.7289    5.6819   -2.0819 H       1  UNL1        0.1488
     32 H          14.8483    6.9126   -3.4520 H       1  UNL1        0.0654
     33 H          14.8483    7.5030   -1.8075 H       1  UNL1        0.0654
     34 H          14.6417    9.1054   -4.1524 H       1  UNL1        0.2100
@<TRIPOS>BOND
     1     1     2    2
     2     2     3   am
     3     3     4    1
     4     4     5    1
     5     5     6    1
     6     6     7    1
     7     7     8    1
     8     8     9    1
     9     9    10    1
    10    10    11    1
    11    11    12    1
    12    12    13   am
    13    13    14    2
    14    13    15    1
    15    15    16    1
    16     2    17    1
    17     3    18    1
    18     4    19    1
    19     4    20    1
    20     5    21    1
    21     5    22    1
    22     7    23    1
    23     7    24    1
    24     8    25    1
    25     8    26    1
    26    10    27    1
    27    10    28    1
    28    11    29    1
    29    11    30    1
    30    12    31    1
    31    15    32    1
    32    15    33    1
    33    16    34    1
