@<TRIPOS>MOLECULE
*****
 39 39 0 0 0
SMALL
GASTEIGER

@<TRIPOS>ATOM
      1 N           1.0174    0.0979    0.0106 N.3     1  UNL1       -0.3279
      2 C           2.4874    0.0979    0.0106 C.3     1  UNL1        0.0166
      3 C           2.9941    1.5274    0.1110 C.3     1  UNL1        0.0600
      4 O           4.4141    1.5274    0.1110 O.3     1  UNL1       -0.3763
      5 C           4.8874    2.8629    0.2048 C.3     1  UNL1        0.0711
      6 C           6.4074    2.8629    0.2048 C.3     1  UNL1        0.0711
      7 O           6.8807    4.1984    0.2986 O.3     1  UNL1       -0.3752
      8 C           8.3007    4.1984    0.2986 C.3     1  UNL1        0.0711
      9 C           8.8074    5.6280    0.3990 C.3     1  UNL1        0.0711
     10 O          10.2274    5.6280    0.3990 O.3     1  UNL1       -0.3757
     11 C          10.7007    6.9635    0.4928 C.3     1  UNL1        0.0673
     12 C          12.2207    6.9635    0.4928 C.3     1  UNL1        0.0665
     13 N          12.7107    8.3460    0.5898 N.ar    1  UNL1       -0.2488
     14 C          14.0801    8.5999    0.6077 C.ar    1  UNL1        0.0560
     15 C          14.5602    9.9544    0.7028 C.ar    1  UNL1        0.1444
     16 C          13.5724   11.1069    0.7837 C.2     1  UNL1        0.1716
     17 O          12.3229   10.8752    0.7675 O.2     1  UNL1       -0.2940
     18 N          15.9295   10.2083    0.7206 N.ar    1  UNL1       -0.1269
     19 N          11.8364    9.3662    0.6615 N.ar    1  UNL1       -0.0650
     20 H           0.6774   -0.8614   -0.0567 H       1  UNL1        0.1183
     21 H           0.6774    0.6359   -0.7865 H       1  UNL1        0.1183
     22 H           2.8441   -0.3441   -0.8962 H       1  UNL1        0.0444
     23 H           2.8441   -0.4665    0.8468 H       1  UNL1        0.0444
     24 H           2.6374    1.9694    1.0179 H       1  UNL1        0.0572
     25 H           2.6374    2.0918   -0.7251 H       1  UNL1        0.0572
     26 H           4.5307    3.3049    1.1116 H       1  UNL1        0.0583
     27 H           4.5307    3.4273   -0.6314 H       1  UNL1        0.0583
     28 H           6.7641    2.4210   -0.7020 H       1  UNL1        0.0583
     29 H           6.7641    2.2986    1.0410 H       1  UNL1        0.0583
     30 H           8.6574    3.7565   -0.6083 H       1  UNL1        0.0583
     31 H           8.6574    3.6341    1.1348 H       1  UNL1        0.0583
     32 H           8.4507    6.0700    1.3058 H       1  UNL1        0.0583
     33 H           8.4507    6.1924   -0.4372 H       1  UNL1        0.0583
     34 H          10.3441    7.4055    1.3996 H       1  UNL1        0.0578
     35 H          10.3441    7.5279   -0.3434 H       1  UNL1        0.0578
     36 H          12.5774    6.5215   -0.4141 H       1  UNL1        0.0532
     37 H          12.5774    6.3991    1.3289 H       1  UNL1        0.0532
     38 H          14.7507    7.8174    0.5527 H       1  UNL1        0.0849
     39 H          13.9164   12.0775    0.8519 H       1  UNL1        0.1099
@<TRIPOS>BOND
     1     1     2    1
     2     2     3    1
     3     3     4    1
     4     4     5    1
     5     5     6    1
     6     6     7    1
     7     7     8    1
     8     8     9    1
     9     9    10    1
    10    10    11    1
    11    11    12    1
    12    12    13    1
    13    13    14   ar
    14    14    15   ar
    15    15    16    1
    16    16    17    2
    17    15    18   ar
    18    18    19   ar
    19    13    19   ar
    20     1    20    1
    21     1    21    1
    22     2    22    1
    23     2    23    1
    24     3    24    1
    25     3    25    1
    26     5    26    1
    27     5    27    1
    28     6    28    1
    29     6    29    1
    30     8    30    1
    31     8    31    1
    32     9    32    1
    33     9    33    1
    34    11    34    1
    35    11    35    1
    36    12    36    1
    37    12    37    1
    38    14    38    1
    39    16    39    1
