@<TRIPOS>MOLECULE
*****
 34 34 0 0 0
SMALL
GASTEIGER

@<TRIPOS>ATOM
      1 O           1.0901    0.0105    0.0420 O.2     1  UNL1       -0.2729
      2 C           2.3610    0.0105    0.0420 C.2     1  UNL1        0.2430
      3 C           3.1210    1.1893   -0.5439 C.3     1  UNL1        0.1241
      4 O           2.1983    2.1558   -1.0243 O.3     1  UNL1       -0.3683
      5 C           2.9083    3.2570   -1.5716 C.3     1  UNL1        0.0716
      6 C           1.9205    4.2916   -2.0859 C.3     1  UNL1        0.0711
      7 O           2.6305    5.3928   -2.6332 O.3     1  UNL1       -0.3752
      8 C           1.7078    6.3593   -3.1136 C.3     1  UNL1        0.0708
      9 C           2.4678    7.5381   -3.6995 C.3     1  UNL1        0.0676
     10 O           1.5450    8.5046   -4.1799 O.3     1  UNL1       -0.3927
     11 N           3.0960   -1.1295    0.6086 N.am    1  UNL1       -0.2836
     12 C           4.5660   -1.1295    0.6086 C.ar    1  UNL1        0.0335
     13 C           5.2861   -2.2464    1.1638 C.ar    1  UNL1       -0.0405
     14 C           6.7263   -2.2464    1.1638 C.ar    1  UNL1       -0.0600
     15 C           7.4464   -3.3633    1.7189 C.ar    1  UNL1       -0.0616
     16 C           8.8866   -3.3633    1.7189 C.ar    1  UNL1       -0.0600
     17 C           5.2861   -0.0126    0.0535 C.ar    1  UNL1       -0.0405
     18 H           3.7362    0.8512   -1.3515 H       1  UNL1        0.0657
     19 H           3.7362    1.6289    0.2132 H       1  UNL1        0.0657
     20 H           3.5234    2.9189   -2.3792 H       1  UNL1        0.0583
     21 H           3.5234    3.6966   -0.8145 H       1  UNL1        0.0583
     22 H           1.3054    4.6297   -1.2783 H       1  UNL1        0.0583
     23 H           1.3054    3.8519   -2.8430 H       1  UNL1        0.0583
     24 H           1.0926    6.6974   -2.3060 H       1  UNL1        0.0583
     25 H           1.0926    5.9197   -3.8707 H       1  UNL1        0.0583
     26 H           3.0829    7.2000   -4.5071 H       1  UNL1        0.0580
     27 H           3.0829    7.9777   -2.9424 H       1  UNL1        0.0580
     28 H           0.9873    8.1060   -4.8662 H       1  UNL1        0.2095
     29 H           2.6038   -1.8930    0.9881 H       1  UNL1        0.1549
     30 H           4.7701   -3.0468    1.5616 H       1  UNL1        0.0636
     31 H           7.2423   -1.4461    0.7660 H       1  UNL1        0.0618
     32 H           6.9304   -4.1636    2.1167 H       1  UNL1        0.0618
     33 H           9.8362   -3.7252    1.8988 H       1  UNL1        0.0618
     34 H           5.1613    0.9047   -0.4025 H       1  UNL1        0.0636
@<TRIPOS>BOND
     1     1     2    2
     2     2     3    1
     3     3     4    1
     4     4     5    1
     5     5     6    1
     6     6     7    1
     7     7     8    1
     8     8     9    1
     9     9    10    1
    10     2    11   am
    11    11    12    1
    12    12    13   ar
    13    13    14   ar
    14    14    15   ar
    15    15    16   ar
    16    16    17   ar
    17    12    17   ar
    18     3    18    1
    19     3    19    1
    20     5    20    1
    21     5    21    1
    22     6    22    1
    23     6    23    1
    24     8    24    1
    25     8    25    1
    26     9    26    1
    27     9    27    1
    28    10    28    1
    29    11    29    1
    30    13    30    1
    31    14    31    1
    32    15    32    1
    33    16    33    1
    34    17    34    1
