@<TRIPOS>MOLECULE
*****
 16 15 0 0 0
SMALL
GASTEIGER

@<TRIPOS>ATOM
      1 C           0.9513   -0.0355    0.0798 C.3     1  UNL1        0.0365
      2 O           2.3713   -0.0355    0.0798 O.3     1  UNL1       -0.3807
      3 C           2.8446   -0.9278    1.0779 C.3     1  UNL1        0.0706
      4 C           4.3646   -0.9278    1.0779 C.3     1  UNL1        0.0706
      5 O           4.8379   -1.8200    2.0760 O.3     1  UNL1       -0.3807
      6 C           6.2579   -1.8200    2.0760 C.3     1  UNL1        0.0365
      7 H           0.5946    0.6369   -0.6723 H       1  UNL1        0.0524
      8 H           0.5946    0.2797    1.0381 H       1  UNL1        0.0524
      9 H           0.5946   -1.0230   -0.1264 H       1  UNL1        0.0524
     10 H           2.4879   -1.9153    0.8717 H       1  UNL1        0.0582
     11 H           2.4879   -0.6126    2.0362 H       1  UNL1        0.0582
     12 H           4.7213    0.0597    1.2841 H       1  UNL1        0.0582
     13 H           4.7213   -1.2429    0.1196 H       1  UNL1        0.0582
     14 H           6.6146   -2.4924    2.8281 H       1  UNL1        0.0524
     15 H           6.6146   -0.8325    2.2822 H       1  UNL1        0.0524
     16 H           6.6146   -2.1352    1.1177 H       1  UNL1        0.0524
@<TRIPOS>BOND
     1     1     2    1
     2     2     3    1
     3     3     4    1
     4     4     5    1
     5     5     6    1
     6     1     7    1
     7     1     8    1
     8     1     9    1
     9     3    10    1
    10     3    11    1
    11     4    12    1
    12     4    13    1
    13     6    14    1
    14     6    15    1
    15     6    16    1
