@<TRIPOS>MOLECULE
*****
 38 39 0 0 0
SMALL
GASTEIGER

@<TRIPOS>ATOM
      1 C           1.0553   -0.0459    0.0695 C.3     1  UNL1       -0.0128
      2 N           2.5253   -0.0459    0.0695 N.3     1  UNL1       -0.3052
      3 C           3.0153   -0.7343   -1.1333 C.3     1  UNL1        0.0009
      4 C           4.5353   -0.7343   -1.1333 C.3     1  UNL1       -0.0137
      5 C           5.0420   -1.4462   -2.3771 C.3     1  UNL1        0.0614
      6 O           4.5687   -0.7725   -3.5340 O.3     1  UNL1       -0.3732
      7 C           3.1487   -0.7725   -3.5340 C.3     1  UNL1        0.0619
      8 C           2.6420   -0.0513   -4.7724 C.3     1  UNL1       -0.0107
      9 C           1.1220   -0.0513   -4.7724 C.3     1  UNL1        0.0168
     10 N           0.6320    0.6462   -5.9700 N.am    1  UNL1       -0.3039
     11 C           1.5872    1.2085   -6.9355 C.2     1  UNL1        0.2025
     12 O           2.8367    1.0916   -6.7348 O.2     1  UNL1       -0.2793
     13 C          -0.8133    0.7813   -6.2021 C.3     1  UNL1        0.0168
     14 C           2.6420   -0.0606   -2.2902 C.3     1  UNL1       -0.0107
     15 C           6.5620   -1.4462   -2.3771 C.3     1  UNL1       -0.0137
     16 C           3.0153   -0.7433    1.2672 C.3     1  UNL1        0.0009
     17 H           0.6987    0.4618   -0.8022 H       1  UNL1        0.0391
     18 H           0.6987    0.4552    0.9451 H       1  UNL1        0.0391
     19 H           0.6987   -1.0547    0.0657 H       1  UNL1        0.0391
     20 H           2.6587   -0.2267   -2.0051 H       1  UNL1        0.0427
     21 H           2.6587   -1.7431   -1.1371 H       1  UNL1        0.0427
     22 H           4.8920   -1.2420   -0.2616 H       1  UNL1        0.0302
     23 H           4.8920    0.2745   -1.1295 H       1  UNL1        0.0302
     24 H           4.6853   -2.4550   -2.3809 H       1  UNL1        0.0597
     25 H           2.7920   -1.7813   -3.5378 H       1  UNL1        0.0597
     26 H           2.9987   -0.5524   -5.6479 H       1  UNL1        0.0305
     27 H           2.9987    0.9575   -4.7686 H       1  UNL1        0.0305
     28 H           0.7653    0.4498   -3.8968 H       1  UNL1        0.0465
     29 H           0.7653   -1.0601   -4.7761 H       1  UNL1        0.0465
     30 H           1.2432    1.6981   -7.7763 H       1  UNL1        0.1253
     31 H          -1.4092    0.0023   -6.6297 H       1  UNL1        0.0465
     32 H          -1.5632    1.4615   -6.5482 H       1  UNL1        0.0465
     33 H           2.3254   -0.6616   -1.4635 H       1  UNL1        0.0305
     34 H           3.1396    0.6427   -1.6557 H       1  UNL1        0.0305
     35 H           7.1300   -0.6344   -2.7810 H       1  UNL1        0.0302
     36 H           7.3879   -2.0839   -2.6137 H       1  UNL1        0.0302
     37 H           3.2859   -0.1452    2.1121 H       1  UNL1        0.0427
     38 H           2.5168   -1.4756    1.8674 H       1  UNL1        0.0427
@<TRIPOS>BOND
     1     1     2    1
     2     2     3    1
     3     3     4    1
     4     4     5    1
     5     5     6    1
     6     6     7    1
     7     7     8    1
     8     8     9    1
     9     9    10    1
    10    10    11   am
    11    11    12    2
    12    10    13    1
    13    13    14    1
    14     7    14    1
    15     5    15    1
    16    15    16    1
    17     2    16    1
    18     1    17    1
    19     1    18    1
    20     1    19    1
    21     3    20    1
    22     3    21    1
    23     4    22    1
    24     4    23    1
    25     5    24    1
    26     7    25    1
    27     8    26    1
    28     8    27    1
    29     9    28    1
    30     9    29    1
    31    11    30    1
    32    13    31    1
    33    13    32    1
    34    14    33    1
    35    14    34    1
    36    15    35    1
    37    15    36    1
    38    16    37    1
    39    16    38    1
