@<TRIPOS>MOLECULE
*****
 30 29 0 0 0
SMALL
GASTEIGER

@<TRIPOS>ATOM
      1 C           0.9446    0.0660   -0.0508 C.3     1  UNL1        0.0121
      2 C           2.4646    0.0660   -0.0508 C.2     1  UNL1        0.2100
      3 O           3.1000   -0.4407   -1.0278 O.2     1  UNL1       -0.2761
      4 N           3.1996    0.6521    1.0793 N.am    1  UNL1       -0.3133
      5 C           4.6696    0.6521    1.0793 C.3     1  UNL1        0.0350
      6 C           5.1763    1.3118    2.3515 C.3     1  UNL1        0.0632
      7 O           6.5963    1.3118    2.3515 O.3     1  UNL1       -0.3767
      8 C           7.0696    1.9281    3.5400 C.3     1  UNL1        0.0632
      9 C           8.5896    1.9281    3.5400 C.3     1  UNL1        0.0351
     10 N           9.0796    2.5662    4.7703 N.am    1  UNL1       -0.3112
     11 C          10.5248    2.6899    5.0088 C.2     1  UNL1        0.2386
     12 O          11.3507    2.2451    4.1513 O.2     1  UNL1       -0.2733
     13 C          11.0315    3.3496    6.2810 C.3     1  UNL1        0.1202
     14 O          12.4515    3.3496    6.2810 O.3     1  UNL1       -0.3858
     15 H           0.5879   -0.3985   -0.9463 H       1  UNL1        0.0322
     16 H           0.5879    1.0737   -0.0052 H       1  UNL1        0.0322
     17 H           0.5879   -0.4774    0.7992 H       1  UNL1        0.0322
     18 H           2.7073    1.0446    1.8362 H       1  UNL1        0.1488
     19 H           5.0263    1.1954    0.2294 H       1  UNL1        0.0484
     20 H           5.0263   -0.3557    1.0338 H       1  UNL1        0.0484
     21 H           4.8196    0.7685    3.2015 H       1  UNL1        0.0575
     22 H           4.8196    2.3196    2.3971 H       1  UNL1        0.0575
     23 H           6.7129    1.3848    4.3900 H       1  UNL1        0.0575
     24 H           6.7129    2.9359    3.5856 H       1  UNL1        0.0575
     25 H           8.9463    2.4715    2.6900 H       1  UNL1        0.0484
     26 H           8.9463    0.9204    3.4944 H       1  UNL1        0.0484
     27 H           8.4398    2.9107    5.4346 H       1  UNL1        0.1488
     28 H          10.6748    2.8063    7.1309 H       1  UNL1        0.0654
     29 H          10.6748    4.3574    6.3265 H       1  UNL1        0.0654
     30 H          12.7748    2.4360    6.2397 H       1  UNL1        0.2100
@<TRIPOS>BOND
     1     1     2    1
     2     2     3    2
     3     2     4   am
     4     4     5    1
     5     5     6    1
     6     6     7    1
     7     7     8    1
     8     8     9    1
     9     9    10    1
    10    10    11   am
    11    11    12    2
    12    11    13    1
    13    13    14    1
    14     1    15    1
    15     1    16    1
    16     1    17    1
    17     4    18    1
    18     5    19    1
    19     5    20    1
    20     6    21    1
    21     6    22    1
    22     8    23    1
    23     8    24    1
    24     9    25    1
    25     9    26    1
    26    10    27    1
    27    13    28    1
    28    13    29    1
    29    14    30    1
