@<TRIPOS>MOLECULE
*****
 18 18 0 0 0
SMALL
GASTEIGER

@<TRIPOS>ATOM
      1 O           0.9051    0.0156    0.0273 O.3     1  UNL1       -0.3888
      2 C           2.3251    0.0156    0.0273 C.3     1  UNL1        0.0876
      3 CA          2.8317    1.0006   -1.0137 C.ar    1  UNL1        0.0846
      4 C           4.2477    1.1814   -1.2048 C.ar    1  UNL1        0.0515
      5 N           4.7119    2.0840   -2.1587 N.ar    1  UNL1       -0.2542
      6 CA          6.0813    2.2589   -2.3435 C.ar    1  UNL1        0.0846
      7 C           7.0691    1.4649   -1.5043 C.3     1  UNL1        0.0876
      8 O           6.3591    0.6196   -0.6111 O.3     1  UNL1       -0.3888
      9 C           6.5614    3.1922   -3.3298 C.ar    1  UNL1        0.0515
     10 N           1.9266    1.7282   -1.7826 N.ar    1  UNL1       -0.2542
     11 H           0.5817   -0.6130    0.6916 H       1  UNL1        0.2099
     12 H1          2.6817   -0.9657   -0.2068 H       1  UNL1        0.0623
     13 H2          2.6817    0.3035    0.9941 H       1  UNL1        0.0623
     14 H           4.9183    0.6423   -0.6351 H       1  UNL1        0.0849
     15 H1          7.6842    2.1384   -0.9451 H       1  UNL1        0.0623
     16 H2          7.6842    0.8692   -2.1460 H       1  UNL1        0.0623
     17 H           5.8014    1.1596   -0.0294 H       1  UNL1        0.2099
     18 H           7.2572    3.7160   -3.8834 H       1  UNL1        0.0849
@<TRIPOS>BOND
     1     1     2    1
     2     2     3    1
     3     3     4   ar
     4     4     5   ar
     5     5     6   ar
     6     6     7    1
     7     7     8    1
     8     6     9   ar
     9     9    10   ar
    10     3    10   ar
    11     1    11    1
    12     2    12    1
    13     2    13    1
    14     4    14    1
    15     7    15    1
    16     7    16    1
    17     8    17    1
    18     9    18    1
