@<TRIPOS>MOLECULE
*****
 52 51 0 0 0
SMALL
GASTEIGER

@<TRIPOS>ATOM
      1 C           1.0132   -0.0719   -0.0682 C.3     1  UNL1       -0.0416
      2 C           2.5332   -0.0719   -0.0682 C.3     1  UNL1        0.0449
      3 O           3.0065    0.1609    1.2502 O.3     1  UNL1       -0.3778
      4 C           4.4265    0.1609    1.2502 C.3     1  UNL1        0.0710
      5 C           4.9331    0.4101    2.6614 C.3     1  UNL1        0.0711
      6 O           6.3531    0.4101    2.6614 O.3     1  UNL1       -0.3752
      7 C           6.8265    0.6429    3.9798 C.3     1  UNL1        0.0711
      8 C           8.3465    0.6429    3.9798 C.3     1  UNL1        0.0711
      9 O           8.8198    0.8758    5.2982 O.3     1  UNL1       -0.3752
     10 C          10.2398    0.8758    5.2982 C.3     1  UNL1        0.0711
     11 C          10.7465    1.1250    6.7094 C.3     1  UNL1        0.0711
     12 O          12.1665    1.1250    6.7094 O.3     1  UNL1       -0.3752
     13 C          12.6398    1.3578    8.0278 C.3     1  UNL1        0.0711
     14 C          14.1598    1.3578    8.0278 C.3     1  UNL1        0.0711
     15 O          14.6331    1.5906    9.3462 O.3     1  UNL1       -0.3752
     16 C          16.0531    1.5906    9.3462 C.3     1  UNL1        0.0711
     17 C          16.5598    1.8399   10.7575 C.3     1  UNL1        0.0711
     18 O          17.9798    1.8399   10.7575 O.3     1  UNL1       -0.3763
     19 C          18.4531    2.0727   12.0758 C.3     1  UNL1        0.0600
     20 C          19.9731    2.0727   12.0758 C.3     1  UNL1        0.0166
     21 N          20.4631    2.3137   13.4407 N.3     1  UNL1       -0.3279
     22 H           0.6565   -0.2474   -1.0616 H       1  UNL1        0.0252
     23 H           0.6565    0.8761    0.2766 H       1  UNL1        0.0252
     24 H           0.6565   -0.8446    0.5805 H       1  UNL1        0.0252
     25 H           2.8898    0.7007   -0.7168 H       1  UNL1        0.0557
     26 H           2.8898   -1.0200   -0.4130 H       1  UNL1        0.0557
     27 H           4.7832    0.9335    0.6015 H       1  UNL1        0.0583
     28 H           4.7832   -0.7872    0.9054 H       1  UNL1        0.0583
     29 H           4.5765   -0.3625    3.3101 H       1  UNL1        0.0583
     30 H           4.5765    1.3582    3.0062 H       1  UNL1        0.0583
     31 H           6.4698   -0.1297    4.6285 H       1  UNL1        0.0583
     32 H           6.4698    1.5910    4.3246 H       1  UNL1        0.0583
     33 H           8.7031    1.4156    3.3312 H       1  UNL1        0.0583
     34 H           8.7031   -0.3051    3.6350 H       1  UNL1        0.0583
     35 H          10.5965    1.6484    4.6496 H       1  UNL1        0.0583
     36 H          10.5965   -0.0723    4.9534 H       1  UNL1        0.0583
     37 H          10.3898    0.3524    7.3581 H       1  UNL1        0.0583
     38 H          10.3898    2.0730    7.0542 H       1  UNL1        0.0583
     39 H          12.2831    0.5852    8.6765 H       1  UNL1        0.0583
     40 H          12.2831    2.3059    8.3726 H       1  UNL1        0.0583
     41 H          14.5165    2.1304    7.3792 H       1  UNL1        0.0583
     42 H          14.5165    0.4098    7.6831 H       1  UNL1        0.0583
     43 H          16.4098    2.3633    8.6976 H       1  UNL1        0.0583
     44 H          16.4098    0.6426    9.0014 H       1  UNL1        0.0583
     45 H          16.2031    1.0672   11.4061 H       1  UNL1        0.0583
     46 H          16.2031    2.7879   11.1022 H       1  UNL1        0.0583
     47 H          18.0964    1.3001   12.7245 H       1  UNL1        0.0572
     48 H          18.0964    3.0208   12.4206 H       1  UNL1        0.0572
     49 H          20.3298    2.8453   11.4272 H       1  UNL1        0.0444
     50 H          20.3298    1.1246   11.7311 H       1  UNL1        0.0444
     51 H          20.1231    3.2175   13.7693 H       1  UNL1        0.1183
     52 H          21.4831    2.3137   13.4407 H       1  UNL1        0.1183
@<TRIPOS>BOND
     1     1     2    1
     2     2     3    1
     3     3     4    1
     4     4     5    1
     5     5     6    1
     6     6     7    1
     7     7     8    1
     8     8     9    1
     9     9    10    1
    10    10    11    1
    11    11    12    1
    12    12    13    1
    13    13    14    1
    14    14    15    1
    15    15    16    1
    16    16    17    1
    17    17    18    1
    18    18    19    1
    19    19    20    1
    20    20    21    1
    21     1    22    1
    22     1    23    1
    23     1    24    1
    24     2    25    1
    25     2    26    1
    26     4    27    1
    27     4    28    1
    28     5    29    1
    29     5    30    1
    30     7    31    1
    31     7    32    1
    32     8    33    1
    33     8    34    1
    34    10    35    1
    35    10    36    1
    36    11    37    1
    37    11    38    1
    38    13    39    1
    39    13    40    1
    40    14    41    1
    41    14    42    1
    42    16    43    1
    43    16    44    1
    44    17    45    1
    45    17    46    1
    46    19    47    1
    47    19    48    1
    48    20    49    1
    49    20    50    1
    50    21    51    1
    51    21    52    1
