@<TRIPOS>MOLECULE
*****
 33 32 0 0 0
SMALL
GASTEIGER

@<TRIPOS>ATOM
      1 C           1.0132   -0.0736    0.0664 C.3     1  UNL1       -0.0570
      2 C           2.5332   -0.0736    0.0664 C.3     1  UNL1        0.0211
      3 C           3.0399   -1.3021   -0.6714 C.2     1  UNL1        0.2128
      4 O           2.2140   -2.1302   -1.1688 O.2     1  UNL1       -0.2758
      5 N           4.4851   -1.5324   -0.8097 N.am    1  UNL1       -0.3131
      6 C           4.9751   -2.7205   -1.5233 C.3     1  UNL1        0.0350
      7 C           6.4951   -2.7205   -1.5233 C.3     1  UNL1        0.0632
      8 O           6.9684   -3.8682   -2.2126 O.3     1  UNL1       -0.3760
      9 C           8.3884   -3.8682   -2.2126 C.3     1  UNL1        0.0711
     10 C           8.8951   -5.0967   -2.9504 C.3     1  UNL1        0.0711
     11 O          10.3151   -5.0967   -2.9504 O.3     1  UNL1       -0.3752
     12 C          10.7884   -6.2444   -3.6397 C.3     1  UNL1        0.0708
     13 C          12.3084   -6.2444   -3.6397 C.3     1  UNL1        0.0676
     14 O          12.7818   -7.3921   -4.3290 O.3     1  UNL1       -0.3927
     15 H           0.6566    0.7913    0.5858 H       1  UNL1        0.0234
     16 H           0.6565   -0.9558    0.5557 H       1  UNL1        0.0234
     17 H           0.6565   -0.0562   -0.9422 H       1  UNL1        0.0234
     18 H           2.8899   -0.0910    1.0751 H       1  UNL1        0.0356
     19 H           2.8899    0.8087   -0.4228 H       1  UNL1        0.0356
     20 H           5.1249   -0.8909   -0.4244 H       1  UNL1        0.1488
     21 H           4.6185   -2.7031   -2.5319 H       1  UNL1        0.0484
     22 H           4.6185   -3.6027   -1.0340 H       1  UNL1        0.0484
     23 H           6.8518   -2.7379   -0.5146 H       1  UNL1        0.0575
     24 H           6.8518   -1.8383   -2.0125 H       1  UNL1        0.0575
     25 H           8.7451   -3.8856   -1.2039 H       1  UNL1        0.0583
     26 H           8.7451   -2.9860   -2.7018 H       1  UNL1        0.0583
     27 H           8.5384   -5.0793   -3.9591 H       1  UNL1        0.0583
     28 H           8.5384   -5.9789   -2.4612 H       1  UNL1        0.0583
     29 H          10.4318   -6.2270   -4.6484 H       1  UNL1        0.0583
     30 H          10.4318   -7.1266   -3.1505 H       1  UNL1        0.0583
     31 H          12.6651   -6.2618   -2.6311 H       1  UNL1        0.0580
     32 H          12.6651   -5.3622   -4.1290 H       1  UNL1        0.0580
     33 H          12.4584   -8.1919   -3.8855 H       1  UNL1        0.2095
@<TRIPOS>BOND
     1     1     2    1
     2     2     3    1
     3     3     4    2
     4     3     5   am
     5     5     6    1
     6     6     7    1
     7     7     8    1
     8     8     9    1
     9     9    10    1
    10    10    11    1
    11    11    12    1
    12    12    13    1
    13    13    14    1
    14     1    15    1
    15     1    16    1
    16     1    17    1
    17     2    18    1
    18     2    19    1
    19     5    20    1
    20     6    21    1
    21     6    22    1
    22     7    23    1
    23     7    24    1
    24     9    25    1
    25     9    26    1
    26    10    27    1
    27    10    28    1
    28    12    29    1
    29    12    30    1
    30    13    31    1
    31    13    32    1
    32    14    33    1
