@<TRIPOS>MOLECULE
*****
 73 75 0 0 0
SMALL
GASTEIGER

@<TRIPOS>ATOM
      1 C           0.9839    0.0692    0.0703 C.3     1  UNL1       -0.0652
      2 C           2.5039    0.0692    0.0703 C.3     1  UNL1       -0.0545
      3 C           3.0106   -0.7380    1.2544 C.3     1  UNL1       -0.0373
      4 C           4.5306   -0.7380    1.2544 C.3     1  UNL1        0.0165
      5 N           5.0206   -1.5186    2.3996 N.am    1  UNL1       -0.2811
      6 C           4.0653   -2.1479    3.3228 C.3     1  UNL1        0.0412
      7 C           2.6468   -1.8403    2.8715 C.ar    1  UNL1       -0.0301
      8 C           1.5266   -2.3502    3.6195 C.ar    1  UNL1       -0.0571
      9 C           0.1826   -2.0587    3.1919 C.ar    1  UNL1       -0.0615
     10 C          -0.9375   -2.5686    3.9399 C.ar    1  UNL1       -0.0617
     11 C          -2.2816   -2.2771    3.5123 C.ar    1  UNL1       -0.0615
     12 C           2.4229   -1.0390    1.6960 C.ar    1  UNL1       -0.0571
     13 C           6.4658   -1.6699    2.6216 C.2     1  UNL1        0.3067
     14 O           7.2917   -1.1258    1.8234 O.2     1  UNL1       -0.2523
     15 N           6.9558   -2.4506    3.7667 N.am    1  UNL1       -0.2693
     16 C           8.4010   -2.6019    3.9887 C.ar    1  UNL1        0.0350
     17 C           8.8811   -3.3667    5.1106 C.ar    1  UNL1       -0.0370
     18 C          10.2971   -3.5149    5.3281 C.ar    1  UNL1       -0.0182
     19 C          10.7771   -4.2797    6.4500 C.ar    1  UNL1        0.1206
     20 O           9.8544   -4.8877    7.3418 O.3     1  UNL1       -0.4920
     21 C           8.4583   -4.7415    7.1274 C.3     1  UNL1        0.0896
     22 C           7.6983   -5.4830    8.2151 C.3     1  UNL1       -0.0170
     23 C           6.2039   -5.3265    7.9856 C.3     1  UNL1       -0.0302
     24 C           5.4439   -6.0680    9.0733 C.3     1  UNL1        0.0433
     25 N           3.9986   -5.9167    8.8513 N.ar    1  UNL1       -0.2515
     26 C           3.0935   -6.5130    9.7261 C.ar    1  UNL1        0.0486
     27 C           1.6776   -6.3647    9.5086 C.ar    1  UNL1        0.0829
     28 C           1.1709   -5.5575    8.3245 C.3     1  UNL1       -0.0060
     29 C           2.3531   -5.0194    7.5351 C.3     1  UNL1       -0.0351
     30 C           1.8465   -4.2122    6.3510 C.3     1  UNL1       -0.0066
     31 N           2.9898   -3.6918    5.5876 N.3     1  UNL1       -0.3300
     32 N           0.7725   -6.9610   10.3834 N.ar    1  UNL1       -0.1345
     33 N           3.5501   -5.2022    7.8032 N.ar    1  UNL1       -0.0655
     34 C          12.1931   -4.4280    6.6675 C.ar    1  UNL1       -0.0182
     35 C           9.3369   -1.9853    3.0842 C.ar    1  UNL1       -0.0370
     36 H           0.6272    0.6375   -0.7632 H       1  UNL1        0.0230
     37 H           0.6272    0.5070    0.9792 H       1  UNL1        0.0230
     38 H           0.6272   -0.9368   -0.0050 H       1  UNL1        0.0230
     39 H           2.8606    1.0752    0.1457 H       1  UNL1        0.0263
     40 H           2.8606   -0.3685   -0.8385 H       1  UNL1        0.0263
     41 H           2.6539   -1.7440    1.1791 H       1  UNL1        0.0280
     42 H           2.6539   -0.3002    2.1633 H       1  UNL1        0.0280
     43 H           4.8872    0.2680    1.3298 H       1  UNL1        0.0465
     44 H           4.8872   -1.1757    0.3456 H       1  UNL1        0.0465
     45 H           4.2169   -1.7634    4.3098 H       1  UNL1        0.0514
     46 H           4.2169   -3.2071    3.3256 H       1  UNL1        0.0514
     47 H           1.6871   -2.9244    4.4619 H       1  UNL1        0.0621
     48 H           0.0222   -1.4845    2.3496 H       1  UNL1        0.0618
     49 H          -0.7771   -3.1428    4.7822 H       1  UNL1        0.0618
     50 H          -3.3129   -2.2973    3.5420 H       1  UNL1        0.0618
     51 H           2.9076   -0.5258    0.9431 H       1  UNL1        0.0621
     52 H           6.3160   -2.8720    4.3850 H       1  UNL1        0.1564
     53 H           8.2105   -3.8085    5.7588 H       1  UNL1        0.0637
     54 H          10.9677   -3.0731    4.6800 H       1  UNL1        0.0655
     55 H           8.1998   -5.1474    6.1717 H       1  UNL1        0.0696
     56 H           8.1998   -3.7036    7.1559 H       1  UNL1        0.0696
     57 H           7.9568   -5.0771    9.1708 H       1  UNL1        0.0298
     58 H           7.9568   -6.5209    8.1866 H       1  UNL1        0.0298
     59 H           5.9454   -5.7324    7.0299 H       1  UNL1        0.0284
     60 H           5.9454   -4.2886    8.0141 H       1  UNL1        0.0284
     61 H           5.7023   -5.6621   10.0290 H       1  UNL1        0.0509
     62 H           5.7023   -7.1059    9.0448 H       1  UNL1        0.0509
     63 H           3.4375   -7.0610   10.5300 H       1  UNL1        0.0845
     64 H           0.5764   -4.7410    8.6777 H       1  UNL1        0.0330
     65 H           0.5764   -6.1847    7.6935 H       1  UNL1        0.0330
     66 H           2.9476   -5.8360    7.1819 H       1  UNL1        0.0281
     67 H           2.9476   -4.3922    8.1661 H       1  UNL1        0.0281
     68 H           1.2520   -3.3956    6.7042 H       1  UNL1        0.0422
     69 H           1.2520   -4.8394    5.7200 H       1  UNL1        0.0422
     70 H           3.5565   -3.0939    6.1891 H       1  UNL1        0.1182
     71 H           2.6498   -3.1501    4.7930 H       1  UNL1        0.1182
     72 H          13.0528   -4.7495    7.1391 H       1  UNL1        0.0655
     73 H           9.4014   -1.4051    2.2331 H       1  UNL1        0.0637
@<TRIPOS>BOND
     1     1     2    1
     2     2     3    1
     3     3     4    1
     4     4     5    1
     5     5     6    1
     6     6     7    1
     7     7     8   ar
     8     8     9   ar
     9     9    10   ar
    10    10    11   ar
    11    11    12   ar
    12     7    12   ar
    13     5    13   am
    14    13    14    2
    15    13    15   am
    16    15    16    1
    17    16    17   ar
    18    17    18   ar
    19    18    19   ar
    20    19    20    1
    21    20    21    1
    22    21    22    1
    23    22    23    1
    24    23    24    1
    25    24    25    1
    26    25    26   ar
    27    26    27   ar
    28    27    28    1
    29    28    29    1
    30    29    30    1
    31    30    31    1
    32    27    32   ar
    33    32    33   ar
    34    25    33   ar
    35    19    34   ar
    36    34    35   ar
    37    16    35   ar
    38     1    36    1
    39     1    37    1
    40     1    38    1
    41     2    39    1
    42     2    40    1
    43     3    41    1
    44     3    42    1
    45     4    43    1
    46     4    44    1
    47     6    45    1
    48     6    46    1
    49     8    47    1
    50     9    48    1
    51    10    49    1
    52    11    50    1
    53    12    51    1
    54    15    52    1
    55    17    53    1
    56    18    54    1
    57    21    55    1
    58    21    56    1
    59    22    57    1
    60    22    58    1
    61    23    59    1
    62    23    60    1
    63    24    61    1
    64    24    62    1
    65    26    63    1
    66    28    64    1
    67    28    65    1
    68    29    66    1
    69    29    67    1
    70    30    68    1
    71    30    69    1
    72    31    70    1
    73    31    71    1
    74    34    72    1
    75    35    73    1
