@<TRIPOS>MOLECULE
*****
 37 38 0 0 0
SMALL
GASTEIGER

@<TRIPOS>ATOM
      1 C           0.9354    0.0211   -0.0734 C.3     1  UNL1       -0.0127
      2 N           2.4054    0.0211   -0.0734 N.3     1  UNL1       -0.3029
      3 C           2.8954   -1.0218    0.8394 C.3     1  UNL1        0.0114
      4 C           4.4154   -1.0218    0.8394 C.3     1  UNL1        0.0117
      5 N           4.9054   -2.0648    1.7521 N.3     1  UNL1       -0.2996
      6 C           4.4154   -3.3767    1.3053 C.3     1  UNL1        0.0019
      7 C           2.8954   -3.3767    1.3053 C.3     1  UNL1       -0.0260
      8 C           2.3888   -4.7332    0.8433 C.3     1  UNL1       -0.0364
      9 C           0.8688   -4.7332    0.8433 C.3     1  UNL1       -0.0038
     10 N           0.3788   -6.0452    0.3965 N.3     1  UNL1       -0.3160
     11 C          -1.0912   -6.0451    0.3965 C.3     1  UNL1       -0.0038
     12 C           2.3888   -2.2983    0.3615 C.3     1  UNL1       -0.0364
     13 C           6.3754   -2.0648    1.7521 C.3     1  UNL1        0.0117
     14 C           2.8954    1.3330    0.3734 C.3     1  UNL1        0.0114
     15 H           0.5788   -0.9339   -0.3986 H       1  UNL1        0.0391
     16 H           0.5788    0.7802   -0.7378 H       1  UNL1        0.0391
     17 H           0.5788    0.2169    0.9162 H       1  UNL1        0.0391
     18 H           2.5388   -1.9768    0.5141 H       1  UNL1        0.0439
     19 H           2.5388   -0.8260    1.8290 H       1  UNL1        0.0439
     20 H           4.7721   -0.0669    1.1646 H       1  UNL1        0.0439
     21 H           4.7721   -1.2177   -0.1503 H       1  UNL1        0.0439
     22 H           4.7721   -4.1358    1.9697 H       1  UNL1        0.0429
     23 H           4.7721   -3.5725    0.3157 H       1  UNL1        0.0429
     24 H           2.5388   -3.1809    2.2949 H       1  UNL1        0.0314
     25 H           2.7454   -5.4924    1.5077 H       1  UNL1        0.0281
     26 H           2.7454   -4.9291   -0.1463 H       1  UNL1        0.0281
     27 H           0.5121   -3.9741    0.1789 H       1  UNL1        0.0424
     28 H           0.5121   -4.5374    1.8329 H       1  UNL1        0.0424
     29 H           0.7188   -6.7688    1.0299 H       1  UNL1        0.1219
     30 H          -1.6575   -6.2839    1.2724 H       1  UNL1        0.0424
     31 H          -1.9136   -6.4091   -0.1833 H       1  UNL1        0.0424
     32 H           2.1101   -1.3565    0.7860 H       1  UNL1        0.0281
     33 H           2.8824   -1.8417   -0.4708 H       1  UNL1        0.0281
     34 H           6.9430   -2.6192    1.0343 H       1  UNL1        0.0439
     35 H           7.2005   -2.1744    2.4245 H       1  UNL1        0.0439
     36 H           3.1671    2.0433   -0.3793 H       1  UNL1        0.0439
     37 H           2.3989    2.0675    0.9725 H       1  UNL1        0.0439
@<TRIPOS>BOND
     1     1     2    1
     2     2     3    1
     3     3     4    1
     4     4     5    1
     5     5     6    1
     6     6     7    1
     7     7     8    1
     8     8     9    1
     9     9    10    1
    10    10    11    1
    11    11    12    1
    12     7    12    1
    13     5    13    1
    14    13    14    1
    15     2    14    1
    16     1    15    1
    17     1    16    1
    18     1    17    1
    19     3    18    1
    20     3    19    1
    21     4    20    1
    22     4    21    1
    23     6    22    1
    24     6    23    1
    25     7    24    1
    26     8    25    1
    27     8    26    1
    28     9    27    1
    29     9    28    1
    30    10    29    1
    31    11    30    1
    32    11    31    1
    33    12    32    1
    34    12    33    1
    35    13    34    1
    36    13    35    1
    37    14    36    1
    38    14    37    1
