@<TRIPOS>MOLECULE
*****
 31 32 0 0 0
SMALL
GASTEIGER

@<TRIPOS>ATOM
      1 C           1.0365    0.0152   -0.0918 C.3     1  UNL1       -0.0027
      2 C           2.5565    0.0152   -0.0918 C.3     1  UNL1       -0.0247
      3 C           3.0632   -1.4172   -0.1360 C.3     1  UNL1        0.0128
      4 N           2.5732   -2.0728   -1.3571 N.3     1  UNL1       -0.2969
      5 C           1.1032   -2.0728   -1.3571 C.3     1  UNL1        0.0118
      6 C           0.5965   -2.7507   -2.6197 C.3     1  UNL1        0.0087
      7 N          -0.8735   -2.7507   -2.6197 N.3     1  UNL1       -0.3136
      8 C          -1.3635   -3.4063   -3.8407 C.3     1  UNL1        0.0087
      9 C           3.0632   -3.4580   -1.3998 C.3     1  UNL1        0.0118
     10 C           4.5832   -1.4172   -0.1360 C.3     1  UNL1       -0.0247
     11 C           5.0898   -2.8495   -0.1802 C.3     1  UNL1       -0.0027
     12 N           0.5465    1.4005   -0.0491 N.3     1  UNL1       -0.3159
     13 H           0.6798   -0.5159    0.7658 H       1  UNL1        0.0424
     14 H           0.6798   -0.4620   -0.9806 H       1  UNL1        0.0424
     15 H           2.9132    0.4925    0.7969 H       1  UNL1        0.0293
     16 H           2.9132    0.5463   -0.9495 H       1  UNL1        0.0293
     17 H           2.7065   -1.9483    0.7216 H       1  UNL1        0.0463
     18 H           0.7465   -1.0644   -1.3260 H       1  UNL1        0.0439
     19 H           0.7465   -2.6039   -0.4994 H       1  UNL1        0.0439
     20 H           0.9532   -3.7590   -2.6508 H       1  UNL1        0.0437
     21 H           0.9532   -2.2196   -3.4773 H       1  UNL1        0.0437
     22 H          -1.2135   -1.7895   -2.5900 H       1  UNL1        0.1220
     23 H          -1.5003   -2.8706   -4.7568 H       1  UNL1        0.0437
     24 H          -2.1339   -4.0736   -4.1666 H       1  UNL1        0.0437
     25 H           3.9439   -3.6547   -1.9747 H       1  UNL1        0.0439
     26 H           3.3778   -4.0849   -0.5917 H       1  UNL1        0.0439
     27 H           4.9398   -0.9399    0.7528 H       1  UNL1        0.0293
     28 H           4.9398   -0.8860   -0.9937 H       1  UNL1        0.0293
     29 H           5.4279   -3.3933    0.6771 H       1  UNL1        0.0424
     30 H           5.5925   -3.6008   -0.7528 H       1  UNL1        0.0424
     31 H           0.2242    1.9188   -0.8663 H       1  UNL1        0.1219
@<TRIPOS>BOND
     1     1     2    1
     2     2     3    1
     3     3     4    1
     4     4     5    1
     5     5     6    1
     6     6     7    1
     7     7     8    1
     8     8     9    1
     9     4     9    1
    10     3    10    1
    11    10    11    1
    12    11    12    1
    13     1    12    1
    14     1    13    1
    15     1    14    1
    16     2    15    1
    17     2    16    1
    18     3    17    1
    19     5    18    1
    20     5    19    1
    21     6    20    1
    22     6    21    1
    23     7    22    1
    24     8    23    1
    25     8    24    1
    26     9    25    1
    27     9    26    1
    28    10    27    1
    29    10    28    1
    30    11    29    1
    31    11    30    1
    32    12    31    1
