@<TRIPOS>MOLECULE
*****
 37 36 0 0 0
SMALL
GASTEIGER

@<TRIPOS>ATOM
      1 C           1.0612    0.0575   -0.0543 C.3     1  UNL1       -0.0653
      2 C           2.5812    0.0575   -0.0543 C.3     1  UNL1       -0.0559
      3 C           3.0879   -1.1031   -0.8951 C.3     1  UNL1       -0.0533
      4 C           4.6079   -1.1031   -0.8951 C.3     1  UNL1       -0.0531
      5 C           5.1145   -2.2636   -1.7358 C.3     1  UNL1       -0.0531
      6 C           6.6345   -2.2636   -1.7358 C.3     1  UNL1       -0.0530
      7 C           7.1412   -3.4242   -2.5765 C.3     1  UNL1       -0.0519
      8 C           8.6612   -3.4242   -2.5765 C.3     1  UNL1       -0.0402
      9 C           9.1678   -4.5847   -3.4173 C.3     1  UNL1       -0.0017
     10 N          10.6378   -4.5847   -3.4173 N.3     1  UNL1       -0.3083
     11 C          11.1279   -4.7277   -2.0387 C.3     1  UNL1       -0.0131
     12 C          11.1278   -5.7071   -4.2303 C.3     1  UNL1       -0.0131
     13 H           0.7045    0.8744    0.5375 H       1  UNL1        0.0230
     14 H           0.7045   -0.8636    0.3573 H       1  UNL1        0.0230
     15 H           0.7045    0.1615   -1.0578 H       1  UNL1        0.0230
     16 H           2.9379   -0.0466    0.9491 H       1  UNL1        0.0263
     17 H           2.9379    0.9785   -0.4659 H       1  UNL1        0.0263
     18 H           2.7312   -0.9990   -1.8985 H       1  UNL1        0.0265
     19 H           2.7312   -2.0241   -0.4835 H       1  UNL1        0.0265
     20 H           4.9645   -1.2071    0.1084 H       1  UNL1        0.0265
     21 H           4.9645   -0.1821   -1.3067 H       1  UNL1        0.0265
     22 H           4.7579   -2.1596   -2.7392 H       1  UNL1        0.0265
     23 H           4.7579   -3.1846   -1.3242 H       1  UNL1        0.0265
     24 H           6.9912   -2.3677   -0.7324 H       1  UNL1        0.0265
     25 H           6.9912   -1.3426   -2.1474 H       1  UNL1        0.0265
     26 H           6.7845   -3.3201   -3.5800 H       1  UNL1        0.0266
     27 H           6.7845   -4.3452   -2.1649 H       1  UNL1        0.0266
     28 H           9.0179   -3.5282   -1.5731 H       1  UNL1        0.0278
     29 H           9.0179   -2.5031   -2.9881 H       1  UNL1        0.0278
     30 H           8.8112   -4.4806   -4.4207 H       1  UNL1        0.0426
     31 H           8.8112   -5.5057   -3.0057 H       1  UNL1        0.0426
     32 H          10.7712   -3.9107   -1.4469 H       1  UNL1        0.0391
     33 H          12.1979   -4.7277   -2.0387 H       1  UNL1        0.0391
     34 H          10.7712   -5.6487   -1.6271 H       1  UNL1        0.0391
     35 H          10.7712   -5.6030   -5.2338 H       1  UNL1        0.0391
     36 H          10.7712   -6.6281   -3.8188 H       1  UNL1        0.0391
     37 H          12.1978   -5.7071   -4.2303 H       1  UNL1        0.0391
@<TRIPOS>BOND
     1     1     2    1
     2     2     3    1
     3     3     4    1
     4     4     5    1
     5     5     6    1
     6     6     7    1
     7     7     8    1
     8     8     9    1
     9     9    10    1
    10    10    11    1
    11    10    12    1
    12     1    13    1
    13     1    14    1
    14     1    15    1
    15     2    16    1
    16     2    17    1
    17     3    18    1
    18     3    19    1
    19     4    20    1
    20     4    21    1
    21     5    22    1
    22     5    23    1
    23     6    24    1
    24     6    25    1
    25     7    26    1
    26     7    27    1
    27     8    28    1
    28     8    29    1
    29     9    30    1
    30     9    31    1
    31    11    32    1
    32    11    33    1
    33    11    34    1
    34    12    35    1
    35    12    36    1
    36    12    37    1
