@<TRIPOS>MOLECULE
*****
 32 31 0 0 0
SMALL
GASTEIGER

@<TRIPOS>ATOM
      1 C           1.0536    0.0078   -0.0841 C.3     1  UNL1       -0.0632
      2 C           2.5736    0.0078   -0.0841 C.3     1  UNL1       -0.0323
      3 C           3.0802   -0.6512    1.1885 C.3     1  UNL1        0.0474
      4 O           4.5002   -0.6512    1.1885 O.3     1  UNL1       -0.3797
      5 C           4.9736   -1.2669    2.3773 C.3     1  UNL1        0.0497
      6 C           6.4936   -1.2669    2.3773 C.3     1  UNL1       -0.0059
      7 C           7.0002   -1.9260    3.6498 C.3     1  UNL1        0.0498
      8 O           8.4202   -1.9260    3.6498 O.3     1  UNL1       -0.3792
      9 C           8.8936   -2.5417    4.8386 C.3     1  UNL1        0.0559
     10 C          10.4136   -2.5417    4.8386 C.3     1  UNL1        0.0471
     11 C          10.9202   -3.2008    6.1111 C.2     1  UNL1        0.2127
     12 N           9.9650   -3.7146    7.1033 N.am    1  UNL1       -0.3293
     13 O          12.1697   -3.3076    6.3174 O.2     1  UNL1       -0.2760
     14 H           0.6969    0.4718   -0.9799 H       1  UNL1        0.0230
     15 H           0.6969    0.5516    0.7656 H       1  UNL1        0.0230
     16 H           0.6969   -0.9999   -0.0380 H       1  UNL1        0.0230
     17 H           2.9302    1.0156   -0.1302 H       1  UNL1        0.0285
     18 H           2.9302   -0.5360   -0.9338 H       1  UNL1        0.0285
     19 H           2.7236   -1.6590    1.2346 H       1  UNL1        0.0560
     20 H           2.7236   -0.1074    2.0381 H       1  UNL1        0.0560
     21 H           4.6169   -2.2747    2.4234 H       1  UNL1        0.0560
     22 H           4.6169   -0.7231    3.2269 H       1  UNL1        0.0560
     23 H           6.8502   -0.2592    2.3312 H       1  UNL1        0.0310
     24 H           6.8502   -1.8107    1.5276 H       1  UNL1        0.0310
     25 H           6.6436   -2.9337    3.6959 H       1  UNL1        0.0560
     26 H           6.6436   -1.3822    4.4995 H       1  UNL1        0.0560
     27 H           8.5369   -3.5494    4.8847 H       1  UNL1        0.0564
     28 H           8.5369   -1.9979    5.6883 H       1  UNL1        0.0564
     29 H          10.7702   -1.5339    4.7925 H       1  UNL1        0.0381
     30 H          10.7702   -3.0855    3.9889 H       1  UNL1        0.0381
     31 H           8.9970   -3.6319    6.9435 H       1  UNL1        0.1449
     32 H          10.2931   -4.1415    7.9275 H       1  UNL1        0.1449
@<TRIPOS>BOND
     1     1     2    1
     2     2     3    1
     3     3     4    1
     4     4     5    1
     5     5     6    1
     6     6     7    1
     7     7     8    1
     8     8     9    1
     9     9    10    1
    10    10    11    1
    11    11    12   am
    12    11    13    2
    13     1    14    1
    14     1    15    1
    15     1    16    1
    16     2    17    1
    17     2    18    1
    18     3    19    1
    19     3    20    1
    20     5    21    1
    21     5    22    1
    22     6    23    1
    23     6    24    1
    24     7    25    1
    25     7    26    1
    26     9    27    1
    27     9    28    1
    28    10    29    1
    29    10    30    1
    30    12    31    1
    31    12    32    1
