@<TRIPOS>MOLECULE
*****
 35 34 0 0 0
SMALL
GASTEIGER

@<TRIPOS>ATOM
      1 C           1.0929   -0.0233   -0.0286 C.3     1  UNL1       -0.0157
      2 N           2.5629   -0.0233   -0.0286 N.3     1  UNL1       -0.3168
      3 C           3.0529    0.1755    1.3430 C.3     1  UNL1        0.0191
      4 C           4.5729    0.1755    1.3430 C.3     1  UNL1        0.0602
      5 O           5.0463    0.3677    2.6679 O.3     1  UNL1       -0.3763
      6 C           6.4663    0.3677    2.6679 C.3     1  UNL1        0.0711
      7 C           6.9729    0.5733    4.0861 C.3     1  UNL1        0.0711
      8 O           8.3929    0.5733    4.0861 O.3     1  UNL1       -0.3752
      9 C           8.8662    0.7654    5.4111 C.3     1  UNL1        0.0711
     10 C          10.3862    0.7654    5.4111 C.3     1  UNL1        0.0711
     11 O          10.8596    0.9575    6.7360 O.3     1  UNL1       -0.3752
     12 C          12.2796    0.9575    6.7360 C.3     1  UNL1        0.0708
     13 C          12.7862    1.1631    8.1542 C.3     1  UNL1        0.0676
     14 O          14.2062    1.1631    8.1542 O.3     1  UNL1       -0.3927
     15 H           0.7363   -0.1681   -1.0270 H       1  UNL1        0.0388
     16 H           0.7363    0.9137    0.3452 H       1  UNL1        0.0388
     17 H           0.7363   -0.8156    0.5959 H       1  UNL1        0.0388
     18 H           2.9029    0.7319   -0.6240 H       1  UNL1        0.1217
     19 H           2.6963   -0.6167    1.9675 H       1  UNL1        0.0446
     20 H           2.6963    1.1125    1.7168 H       1  UNL1        0.0446
     21 H           4.9296    0.9678    0.7184 H       1  UNL1        0.0572
     22 H           4.9296   -0.7614    0.9691 H       1  UNL1        0.0572
     23 H           6.8229    1.1599    2.0433 H       1  UNL1        0.0583
     24 H           6.8229   -0.5693    2.2941 H       1  UNL1        0.0583
     25 H           6.6162   -0.2189    4.7107 H       1  UNL1        0.0583
     26 H           6.6162    1.5103    4.4600 H       1  UNL1        0.0583
     27 H           8.5096   -0.0268    6.0356 H       1  UNL1        0.0583
     28 H           8.5096    1.7024    5.7849 H       1  UNL1        0.0583
     29 H          10.7429    1.5576    4.7865 H       1  UNL1        0.0583
     30 H          10.7429   -0.1716    5.0372 H       1  UNL1        0.0583
     31 H          12.6362    1.7497    6.1115 H       1  UNL1        0.0583
     32 H          12.6362    0.0205    6.3622 H       1  UNL1        0.0583
     33 H          12.4296    0.3709    8.7788 H       1  UNL1        0.0580
     34 H          12.4296    2.1001    8.5281 H       1  UNL1        0.0580
     35 H          14.5296    0.3137    7.8154 H       1  UNL1        0.2095
@<TRIPOS>BOND
     1     1     2    1
     2     2     3    1
     3     3     4    1
     4     4     5    1
     5     5     6    1
     6     6     7    1
     7     7     8    1
     8     8     9    1
     9     9    10    1
    10    10    11    1
    11    11    12    1
    12    12    13    1
    13    13    14    1
    14     1    15    1
    15     1    16    1
    16     1    17    1
    17     2    18    1
    18     3    19    1
    19     3    20    1
    20     4    21    1
    21     4    22    1
    22     6    23    1
    23     6    24    1
    24     7    25    1
    25     7    26    1
    26     9    27    1
    27     9    28    1
    28    10    29    1
    29    10    30    1
    30    12    31    1
    31    12    32    1
    32    13    33    1
    33    13    34    1
    34    14    35    1
