@<TRIPOS>MOLECULE
*****
 19 18 0 0 0
SMALL
GASTEIGER

@<TRIPOS>ATOM
      1 C           1.0024   -0.0054   -0.0998 C.3     1  UNL1        0.0365
      2 O           2.4224   -0.0054   -0.0998 O.3     1  UNL1       -0.3814
      3 C           2.8957   -0.7442   -1.2163 C.3     1  UNL1        0.0628
      4 C           4.4157   -0.7442   -1.2163 C.3     1  UNL1        0.0350
      5 N           4.9057   -1.5091   -2.3720 N.am    1  UNL1       -0.3133
      6 C           6.3510   -1.6574   -2.5960 C.2     1  UNL1        0.2100
      7 C           7.3387   -1.0198   -1.6326 C.3     1  UNL1        0.0121
      8 O           6.7746   -2.3187   -3.5952 O.2     1  UNL1       -0.2761
      9 H           0.6457    0.5514    0.7414 H       1  UNL1        0.0523
     10 H           0.6457   -1.0123   -0.0383 H       1  UNL1        0.0523
     11 H           0.6457    0.4448   -1.0026 H       1  UNL1        0.0523
     12 H           2.5391   -0.2941   -2.1191 H       1  UNL1        0.0575
     13 H           2.5391   -1.7512   -1.1547 H       1  UNL1        0.0575
     14 H           4.7724   -1.1944   -0.3135 H       1  UNL1        0.0484
     15 H           4.7724    0.2627   -1.2778 H       1  UNL1        0.0484
     16 H           4.2660   -1.9221   -2.9960 H       1  UNL1        0.1488
     17 H           6.8037   -0.5084   -0.8598 H       1  UNL1        0.0322
     18 H           7.9539   -0.3225   -2.1620 H       1  UNL1        0.0322
     19 H           7.9539   -1.7796   -1.1977 H       1  UNL1        0.0322
@<TRIPOS>BOND
     1     1     2    1
     2     2     3    1
     3     3     4    1
     4     4     5    1
     5     5     6   am
     6     6     7    1
     7     6     8    2
     8     1     9    1
     9     1    10    1
    10     1    11    1
    11     3    12    1
    12     3    13    1
    13     4    14    1
    14     4    15    1
    15     5    16    1
    16     7    17    1
    17     7    18    1
    18     7    19    1
