@<TRIPOS>MOLECULE
*****
 20 19 0 0 0
SMALL
GASTEIGER

@<TRIPOS>ATOM
      1 C           0.9379   -0.0693   -0.0366 C.3     1  UNL1        0.0365
      2 O           2.3579   -0.0693   -0.0366 O.3     1  UNL1       -0.3807
      3 C           2.8312   -0.7581    1.1113 C.3     1  UNL1        0.0706
      4 C           4.3512   -0.7581    1.1113 C.3     1  UNL1        0.0711
      5 O           4.8246   -1.4469    2.2593 O.3     1  UNL1       -0.3752
      6 C           6.2446   -1.4469    2.2593 C.3     1  UNL1        0.0708
      7 C           6.7512   -2.1842    3.4882 C.3     1  UNL1        0.0676
      8 O           8.1712   -2.1842    3.4882 O.3     1  UNL1       -0.3927
      9 H           0.5812    0.4498   -0.9017 H       1  UNL1        0.0524
     10 H           0.5812    0.4203    0.8454 H       1  UNL1        0.0524
     11 H           0.5812   -1.0779   -0.0536 H       1  UNL1        0.0524
     12 H           2.4746   -1.7668    1.0944 H       1  UNL1        0.0582
     13 H           2.4746   -0.2685    1.9934 H       1  UNL1        0.0582
     14 H           4.7079    0.2506    1.1283 H       1  UNL1        0.0583
     15 H           4.7079   -1.2477    0.2293 H       1  UNL1        0.0583
     16 H           6.6012   -0.4382    2.2763 H       1  UNL1        0.0583
     17 H           6.6012   -1.9365    1.3773 H       1  UNL1        0.0583
     18 H           6.3945   -3.1929    3.4712 H       1  UNL1        0.0580
     19 H           6.3945   -1.6946    4.3702 H       1  UNL1        0.0580
     20 H           8.4945   -2.6281    2.6886 H       1  UNL1        0.2095
@<TRIPOS>BOND
     1     1     2    1
     2     2     3    1
     3     3     4    1
     4     4     5    1
     5     5     6    1
     6     6     7    1
     7     7     8    1
     8     1     9    1
     9     1    10    1
    10     1    11    1
    11     3    12    1
    12     3    13    1
    13     4    14    1
    14     4    15    1
    15     6    16    1
    16     6    17    1
    17     7    18    1
    18     7    19    1
    19     8    20    1
