@<TRIPOS>MOLECULE
*****
 34 35 0 0 0
SMALL
GASTEIGER

@<TRIPOS>ATOM
      1 C           1.0464    0.0712   -0.0526 C.3     1  UNL1       -0.0130
      2 N           2.5164    0.0712   -0.0526 N.3     1  UNL1       -0.3080
      3 C           3.0065    1.0092   -1.0730 C.3     1  UNL1       -0.0130
      4 C           3.0064    0.4859    1.2698 C.3     1  UNL1        0.0040
      5 C           4.5264    0.4859    1.2698 C.3     1  UNL1        0.0033
      6 C           5.0331    0.9146    2.6372 C.3     1  UNL1        0.0204
      7 N           6.5031    0.9146    2.6372 N.am    1  UNL1       -0.2968
      8 C           7.2381    1.2955    3.8520 C.2     1  UNL1        0.2466
      9 O           6.6027    1.6248    4.9022 O.2     1  UNL1       -0.2700
     10 C           8.7581    1.2955    3.8520 C.ar    1  UNL1        0.0369
     11 C           9.4782    1.6686    5.0421 C.ar    1  UNL1       -0.0496
     12 C          10.9184    1.6686    5.0421 C.ar    1  UNL1       -0.0610
     13 C          11.6385    2.0418    6.2322 C.ar    1  UNL1       -0.0617
     14 C          13.0787    2.0418    6.2322 C.ar    1  UNL1       -0.0610
     15 C           9.4782    0.9223    2.6619 C.ar    1  UNL1       -0.0496
     16 C           5.0331    1.4557    0.2148 C.3     1  UNL1        0.0204
     17 H           0.6898   -0.2306   -1.0152 H       1  UNL1        0.0391
     18 H           0.6898    1.0558    0.1673 H       1  UNL1        0.0391
     19 H           0.6898   -0.6115    0.6900 H       1  UNL1        0.0391
     20 H           2.6498    0.7074   -2.0356 H       1  UNL1        0.0391
     21 H           4.0765    1.0092   -1.0730 H       1  UNL1        0.0391
     22 H           2.6498    1.9937   -0.8530 H       1  UNL1        0.0391
     23 H           2.6498   -0.1969    2.0125 H       1  UNL1        0.0430
     24 H           2.6498    1.4704    1.4897 H       1  UNL1        0.0430
     25 H           4.8831   -0.4987    1.0499 H       1  UNL1        0.0344
     26 H           4.6764    0.2319    3.3799 H       1  UNL1        0.0468
     27 H           4.6764    1.8991    2.8572 H       1  UNL1        0.0468
     28 H           8.9622    1.9360    5.8949 H       1  UNL1        0.0625
     29 H          11.4344    1.4012    4.1893 H       1  UNL1        0.0618
     30 H          11.1225    2.3092    7.0850 H       1  UNL1        0.0618
     31 H          14.0283    2.1627    6.6178 H       1  UNL1        0.0618
     32 H           9.3533    0.6158    1.6844 H       1  UNL1        0.0625
     33 H           5.3896    1.0930   -0.7266 H       1  UNL1        0.0468
     34 H           4.6518    2.3274   -0.2747 H       1  UNL1        0.0468
@<TRIPOS>BOND
     1     1     2    1
     2     2     3    1
     3     2     4    1
     4     4     5    1
     5     5     6    1
     6     6     7    1
     7     7     8   am
     8     8     9    2
     9     8    10    1
    10    10    11   ar
    11    11    12   ar
    12    12    13   ar
    13    13    14   ar
    14    14    15   ar
    15    10    15   ar
    16     7    16    1
    17     5    16    1
    18     1    17    1
    19     1    18    1
    20     1    19    1
    21     3    20    1
    22     3    21    1
    23     3    22    1
    24     4    23    1
    25     4    24    1
    26     5    25    1
    27     6    26    1
    28     6    27    1
    29    11    28    1
    30    12    29    1
    31    13    30    1
    32    14    31    1
    33    15    32    1
    34    16    33    1
    35    16    34    1
