@<TRIPOS>MOLECULE
*****
 64 66 0 0 0
SMALL
GASTEIGER

@<TRIPOS>ATOM
      1 C           1.0385    0.0714    0.0585 C.3     1  UNL1       -0.0652
      2 C           2.5585    0.0714    0.0585 C.3     1  UNL1       -0.0545
      3 C           3.0651    0.6343   -1.2594 C.3     1  UNL1       -0.0373
      4 C           4.5851    0.6343   -1.2594 C.3     1  UNL1        0.0165
      5 N           5.0751    1.1787   -2.5339 N.am    1  UNL1       -0.2811
      6 C           4.1199    1.6176   -3.5614 C.3     1  UNL1        0.0412
      7 C           2.7014    1.4031   -3.0592 C.ar    1  UNL1       -0.0301
      8 C           1.5812    1.7587   -3.8916 C.ar    1  UNL1       -0.0571
      9 C           0.2372    1.5554   -3.4157 C.ar    1  UNL1       -0.0615
     10 C          -0.8830    1.9110   -4.2482 C.ar    1  UNL1       -0.0617
     11 C          -2.2270    1.7077   -3.7723 C.ar    1  UNL1       -0.0615
     12 C           2.4775    0.8442   -1.7508 C.ar    1  UNL1       -0.0571
     13 C           6.5204    1.2842   -2.7809 C.2     1  UNL1        0.3067
     14 O           7.3463    0.9048   -1.8926 O.2     1  UNL1       -0.2523
     15 N           7.0104    1.8287   -4.0555 N.am    1  UNL1       -0.2693
     16 C           8.4556    1.9342   -4.3025 C.ar    1  UNL1        0.0350
     17 C           8.9357    2.4675   -5.5512 C.ar    1  UNL1       -0.0370
     18 C          10.3516    2.5709   -5.7932 C.ar    1  UNL1       -0.0182
     19 C          10.8317    3.1043   -7.0419 C.ar    1  UNL1        0.1207
     20 O           9.9089    3.5283   -8.0344 O.3     1  UNL1       -0.4901
     21 C           8.5128    3.4263   -7.7958 C.3     1  UNL1        0.1091
     22 C           7.7528    3.9434   -9.0064 C.3     1  UNL1        0.0772
     23 N           6.3076    3.8379   -8.7593 N.ar    1  UNL1       -0.2482
     24 C           5.4025    4.2537   -9.7329 C.ar    1  UNL1        0.0488
     25 C           3.9865    4.1504   -9.4909 C.ar    1  UNL1        0.0840
     26 C           3.4799    3.5874   -8.1730 C.3     1  UNL1        0.0052
     27 C           4.6621    3.2122   -7.2944 C.3     1  UNL1       -0.0014
     28 N           4.1721    2.6677   -6.0199 N.3     1  UNL1       -0.3296
     29 N           3.0814    4.5662  -10.4644 N.ar    1  UNL1       -0.1345
     30 N           5.8591    3.3396   -7.5928 N.ar    1  UNL1       -0.0654
     31 C          12.2476    3.2077   -7.2839 C.ar    1  UNL1       -0.0182
     32 C           9.3915    1.5042   -3.2958 C.ar    1  UNL1       -0.0370
     33 H           0.6818   -0.3249    0.9862 H       1  UNL1        0.0230
     34 H           0.6818   -0.5339   -0.7485 H       1  UNL1        0.0230
     35 H           0.6818    1.0730   -0.0622 H       1  UNL1        0.0230
     36 H           2.9151   -0.9302    0.1792 H       1  UNL1        0.0263
     37 H           2.9151    0.6767    0.8655 H       1  UNL1        0.0263
     38 H           2.7085    1.6359   -1.3801 H       1  UNL1        0.0280
     39 H           2.7085    0.0290   -2.0664 H       1  UNL1        0.0280
     40 H           4.9418   -0.3672   -1.1387 H       1  UNL1        0.0465
     41 H           4.9418    1.2396   -0.4523 H       1  UNL1        0.0465
     42 H           4.2715    1.0494   -4.4553 H       1  UNL1        0.0514
     43 H           4.2715    2.6563   -3.7690 H       1  UNL1        0.0514
     44 H           1.7416    2.1591   -4.8291 H       1  UNL1        0.0621
     45 H           0.0768    1.1549   -2.4782 H       1  UNL1        0.0618
     46 H          -0.7225    2.3114   -5.1857 H       1  UNL1        0.0618
     47 H          -3.2584    1.7218   -3.8053 H       1  UNL1        0.0618
     48 H           2.9621    0.4863   -0.9129 H       1  UNL1        0.0621
     49 H           6.3706    2.1226   -4.7436 H       1  UNL1        0.1564
     50 H           8.2651    2.7757   -6.2725 H       1  UNL1        0.0637
     51 H          11.0223    2.2628   -5.0718 H       1  UNL1        0.0655
     52 H           8.2544    4.0094   -6.9367 H       1  UNL1        0.0715
     53 H           8.2544    2.4025   -7.6230 H       1  UNL1        0.0715
     54 H           8.0113    3.3604   -9.8655 H       1  UNL1        0.0543
     55 H           8.0113    4.9672   -9.1792 H       1  UNL1        0.0543
     56 H           5.7465    4.6359  -10.6277 H       1  UNL1        0.0845
     57 H           2.8854    2.7180   -8.3616 H       1  UNL1        0.0342
     58 H           2.8854    4.3248   -7.6752 H       1  UNL1        0.0342
     59 H           5.2566    4.0816   -7.1059 H       1  UNL1        0.0425
     60 H           5.2566    2.4748   -7.7922 H       1  UNL1        0.0425
     61 H           3.6054    3.3707   -5.5454 H       1  UNL1        0.1182
     62 H           4.9655    2.4159   -5.4303 H       1  UNL1        0.1182
     63 H          13.1074    3.4319   -7.8088 H       1  UNL1        0.0655
     64 H           9.4560    1.0996   -2.3486 H       1  UNL1        0.0637
@<TRIPOS>BOND
     1     1     2    1
     2     2     3    1
     3     3     4    1
     4     4     5    1
     5     5     6    1
     6     6     7    1
     7     7     8   ar
     8     8     9   ar
     9     9    10   ar
    10    10    11   ar
    11    11    12   ar
    12     7    12   ar
    13     5    13   am
    14    13    14    2
    15    13    15   am
    16    15    16    1
    17    16    17   ar
    18    17    18   ar
    19    18    19   ar
    20    19    20    1
    21    20    21    1
    22    21    22    1
    23    22    23    1
    24    23    24   ar
    25    24    25   ar
    26    25    26    1
    27    26    27    1
    28    27    28    1
    29    25    29   ar
    30    29    30   ar
    31    23    30   ar
    32    19    31   ar
    33    31    32   ar
    34    16    32   ar
    35     1    33    1
    36     1    34    1
    37     1    35    1
    38     2    36    1
    39     2    37    1
    40     3    38    1
    41     3    39    1
    42     4    40    1
    43     4    41    1
    44     6    42    1
    45     6    43    1
    46     8    44    1
    47     9    45    1
    48    10    46    1
    49    11    47    1
    50    12    48    1
    51    15    49    1
    52    17    50    1
    53    18    51    1
    54    21    52    1
    55    21    53    1
    56    22    54    1
    57    22    55    1
    58    24    56    1
    59    26    57    1
    60    26    58    1
    61    27    59    1
    62    27    60    1
    63    28    61    1
    64    28    62    1
    65    31    63    1
    66    32    64    1
