@<TRIPOS>MOLECULE
*****
 14 13 0 0 0
SMALL
GASTEIGER

@<TRIPOS>ATOM
      1 C           1.0820    0.0498   -0.0280 C.3     1  UNL1       -0.0653
      2 C           2.6020    0.0498   -0.0280 C.3     1  UNL1       -0.0562
      3 C           3.1087   -1.3068   -0.4898 C.3     1  UNL1       -0.0562
      4 C           4.6287   -1.3068   -0.4898 C.3     1  UNL1       -0.0653
      5 H           0.7254    1.0049    0.2970 H       1  UNL1        0.0230
      6 H           0.7254   -0.7092    0.6365 H       1  UNL1        0.0230
      7 H           0.7254   -0.1462   -1.0176 H       1  UNL1        0.0230
      8 H           2.9587    0.2458    0.9616 H       1  UNL1        0.0263
      9 H           2.9587    0.8089   -0.6925 H       1  UNL1        0.0263
     10 H           2.7520   -1.5028   -1.4794 H       1  UNL1        0.0263
     11 H           2.7520   -2.0658    0.1748 H       1  UNL1        0.0263
     12 H           4.9854   -0.5478   -1.1543 H       1  UNL1        0.0230
     13 H           4.9854   -2.2618   -0.8148 H       1  UNL1        0.0230
     14 H           4.9854   -1.1108    0.4998 H       1  UNL1        0.0230
@<TRIPOS>BOND
     1     1     2    1
     2     2     3    1
     3     3     4    1
     4     1     5    1
     5     1     6    1
     6     1     7    1
     7     2     8    1
     8     2     9    1
     9     3    10    1
    10     3    11    1
    11     4    12    1
    12     4    13    1
    13     4    14    1
