@<TRIPOS>MOLECULE
*****
 33 32 0 0 0
SMALL
GASTEIGER

@<TRIPOS>ATOM
      1 C           0.9506    0.0694    0.0524 C.3     1  UNL1       -0.0570
      2 C           2.4706    0.0694    0.0524 C.3     1  UNL1        0.0211
      3 C           2.9773   -0.5777    1.3311 C.2     1  UNL1        0.2128
      4 O           2.1514   -1.0139    2.1930 O.2     1  UNL1       -0.2758
      5 N           4.4225   -0.6990    1.5708 N.am    1  UNL1       -0.3131
      6 C           4.9125   -1.3248    2.8074 C.3     1  UNL1        0.0350
      7 C           6.4325   -1.3248    2.8074 C.3     1  UNL1        0.0632
      8 O           6.9058   -1.9293    4.0019 O.3     1  UNL1       -0.3760
      9 C           8.3258   -1.9293    4.0019 C.3     1  UNL1        0.0711
     10 C           8.8325   -2.5763    5.2806 C.3     1  UNL1        0.0711
     11 O          10.2525   -2.5763    5.2806 O.3     1  UNL1       -0.3752
     12 C          10.7258   -3.1808    6.4751 C.3     1  UNL1        0.0708
     13 C          12.2458   -3.1808    6.4751 C.3     1  UNL1        0.0676
     14 O          12.7192   -3.7853    7.6697 O.3     1  UNL1       -0.3927
     15 H           0.5939    0.5249   -0.8477 H       1  UNL1        0.0234
     16 H           0.5939    0.6212    0.8969 H       1  UNL1        0.0234
     17 H           0.5939   -0.9379    0.1080 H       1  UNL1        0.0234
     18 H           2.8273    1.0767   -0.0032 H       1  UNL1        0.0356
     19 H           2.8273   -0.4824   -0.7921 H       1  UNL1        0.0356
     20 H           5.0623   -0.3611    0.9031 H       1  UNL1        0.1488
     21 H           4.5558   -2.3320    2.8629 H       1  UNL1        0.0484
     22 H           4.5558   -0.7730    3.6519 H       1  UNL1        0.0484
     23 H           6.7892   -0.3175    2.7518 H       1  UNL1        0.0575
     24 H           6.7892   -1.8765    1.9628 H       1  UNL1        0.0575
     25 H           8.6825   -0.9220    3.9463 H       1  UNL1        0.0583
     26 H           8.6825   -2.4810    3.1574 H       1  UNL1        0.0583
     27 H           8.4758   -3.5836    5.3362 H       1  UNL1        0.0583
     28 H           8.4758   -2.0246    6.1251 H       1  UNL1        0.0583
     29 H          10.3692   -4.1881    6.5307 H       1  UNL1        0.0583
     30 H          10.3692   -2.6291    7.3197 H       1  UNL1        0.0583
     31 H          12.6025   -2.1736    6.4195 H       1  UNL1        0.0580
     32 H          12.6025   -3.7326    5.6306 H       1  UNL1        0.0580
     33 H          12.3958   -3.2851    8.4353 H       1  UNL1        0.2095
@<TRIPOS>BOND
     1     1     2    1
     2     2     3    1
     3     3     4    2
     4     3     5   am
     5     5     6    1
     6     6     7    1
     7     7     8    1
     8     8     9    1
     9     9    10    1
    10    10    11    1
    11    11    12    1
    12    12    13    1
    13    13    14    1
    14     1    15    1
    15     1    16    1
    16     1    17    1
    17     2    18    1
    18     2    19    1
    19     5    20    1
    20     6    21    1
    21     6    22    1
    22     7    23    1
    23     7    24    1
    24     9    25    1
    25     9    26    1
    26    10    27    1
    27    10    28    1
    28    12    29    1
    29    12    30    1
    30    13    31    1
    31    13    32    1
    32    14    33    1
