@<TRIPOS>MOLECULE
*****
 37 38 0 0 0
SMALL
GASTEIGER

@<TRIPOS>ATOM
      1 C           1.0965    0.0148    0.0215 C.3     1  UNL1       -0.0128
      2 N           2.5665    0.0148    0.0215 N.3     1  UNL1       -0.3053
      3 C           3.0565    0.3118   -1.3322 C.3     1  UNL1       -0.0128
      4 C           3.0565    1.0387    0.9556 C.3     1  UNL1        0.0127
      5 C           4.5765    1.0387    0.9556 C.3     1  UNL1       -0.0214
      6 C           5.0832    2.0974    1.9215 C.3     1  UNL1        0.0164
      7 N           6.5532    2.0974    1.9215 N.am    1  UNL1       -0.2974
      8 C           7.2882    1.1569    1.0634 C.2     1  UNL1        0.2466
      9 O           8.5591    1.1569    1.0634 O.2     1  UNL1       -0.2700
     10 C           6.5282    0.1845    0.1763 C.ar    1  UNL1        0.0369
     11 C           7.2483   -0.7370   -0.6644 C.ar    1  UNL1       -0.0496
     12 C           6.5282   -1.6584   -1.5050 C.ar    1  UNL1       -0.0610
     13 C           7.2483   -2.5798   -2.3456 C.ar    1  UNL1       -0.0617
     14 C           6.5282   -3.5012   -3.1862 C.ar    1  UNL1       -0.0610
     15 C           5.0880    0.1845    0.1763 C.ar    1  UNL1       -0.0496
     16 C           7.2882    3.0379    2.7795 C.3     1  UNL1        0.0164
     17 C           2.5498    0.7316    2.3554 C.3     1  UNL1       -0.0214
     18 H           0.7399   -0.7304   -0.6584 H       1  UNL1        0.0391
     19 H           0.7399    0.9763   -0.2839 H       1  UNL1        0.0391
     20 H           0.7399   -0.2013    1.0069 H       1  UNL1        0.0391
     21 H           2.6999   -0.4334   -2.0121 H       1  UNL1        0.0391
     22 H           4.1265    0.3119   -1.3322 H       1  UNL1        0.0391
     23 H           2.6999    1.2733   -1.6377 H       1  UNL1        0.0391
     24 H           2.6998    2.0002    0.6501 H       1  UNL1        0.0463
     25 H           4.9332    1.2549   -0.0298 H       1  UNL1        0.0295
     26 H           4.9332    0.0773    1.2611 H       1  UNL1        0.0295
     27 H           4.7265    1.8812    2.9068 H       1  UNL1        0.0465
     28 H           4.7265    3.0588    1.6160 H       1  UNL1        0.0465
     29 H           8.2803   -0.7370   -0.6644 H       1  UNL1        0.0625
     30 H           5.4962   -1.6584   -1.5050 H       1  UNL1        0.0618
     31 H           8.2803   -2.5798   -2.3456 H       1  UNL1        0.0618
     32 H           6.4033   -4.2580   -3.8766 H       1  UNL1        0.0618
     33 H           4.2632    0.6427    0.5943 H       1  UNL1        0.0625
     34 H           7.4656    4.0573    2.5069 H       1  UNL1        0.0465
     35 H           8.1428    3.1235    3.4175 H       1  UNL1        0.0465
     36 H           1.6967    1.2721    2.7087 H       1  UNL1        0.0295
     37 H           2.2007   -0.1920    2.7677 H       1  UNL1        0.0295
@<TRIPOS>BOND
     1     1     2    1
     2     2     3    1
     3     2     4    1
     4     4     5    1
     5     5     6    1
     6     6     7    1
     7     7     8   am
     8     8     9    2
     9     8    10    1
    10    10    11   ar
    11    11    12   ar
    12    12    13   ar
    13    13    14   ar
    14    14    15   ar
    15    10    15   ar
    16     7    16    1
    17    16    17    1
    18     4    17    1
    19     1    18    1
    20     1    19    1
    21     1    20    1
    22     3    21    1
    23     3    22    1
    24     3    23    1
    25     4    24    1
    26     5    25    1
    27     5    26    1
    28     6    27    1
    29     6    28    1
    30    11    29    1
    31    12    30    1
    32    13    31    1
    33    14    32    1
    34    15    33    1
    35    16    34    1
    36    16    35    1
    37    17    36    1
    38    17    37    1
