@<TRIPOS>MOLECULE
*****
 26 25 0 0 0
SMALL
GASTEIGER

@<TRIPOS>ATOM
      1 C           1.0448   -0.0765    0.0463 C.3     1  UNL1       -0.0416
      2 C           2.5648   -0.0765    0.0463 C.3     1  UNL1        0.0449
      3 O           3.0381   -0.6919    1.2353 O.3     1  UNL1       -0.3778
      4 C           4.4581   -0.6919    1.2353 C.3     1  UNL1        0.0710
      5 C           4.9647   -1.3507    2.5079 C.3     1  UNL1        0.0711
      6 O           6.3847   -1.3507    2.5079 O.3     1  UNL1       -0.3752
      7 C           6.8581   -1.9662    3.6969 C.3     1  UNL1        0.0711
      8 C           8.3781   -1.9662    3.6969 C.3     1  UNL1        0.0706
      9 O           8.8514   -2.5816    4.8858 O.3     1  UNL1       -0.3807
     10 C          10.2714   -2.5816    4.8858 C.3     1  UNL1        0.0365
     11 H           0.6881    0.3873   -0.8496 H       1  UNL1        0.0252
     12 H           0.6881    0.4675    0.8959 H       1  UNL1        0.0252
     13 H           0.6881   -1.0842    0.0927 H       1  UNL1        0.0252
     14 H           2.9214    0.9313    0.0000 H       1  UNL1        0.0557
     15 H           2.9214   -0.6205   -0.8032 H       1  UNL1        0.0557
     16 H           4.8147    0.3158    1.1890 H       1  UNL1        0.0583
     17 H           4.8147   -1.2359    0.3857 H       1  UNL1        0.0583
     18 H           4.6081   -2.3585    2.5543 H       1  UNL1        0.0583
     19 H           4.6081   -0.8067    3.3575 H       1  UNL1        0.0583
     20 H           6.5014   -2.9739    3.7432 H       1  UNL1        0.0583
     21 H           6.5014   -1.4222    4.5465 H       1  UNL1        0.0583
     22 H           8.7347   -0.9584    3.6506 H       1  UNL1        0.0582
     23 H           8.7347   -2.5102    2.8473 H       1  UNL1        0.0582
     24 H          10.6281   -3.0454    5.7817 H       1  UNL1        0.0524
     25 H          10.6281   -1.5739    4.8395 H       1  UNL1        0.0524
     26 H          10.6281   -3.1256    4.0363 H       1  UNL1        0.0524
@<TRIPOS>BOND
     1     1     2    1
     2     2     3    1
     3     3     4    1
     4     4     5    1
     5     5     6    1
     6     6     7    1
     7     7     8    1
     8     8     9    1
     9     9    10    1
    10     1    11    1
    11     1    12    1
    12     1    13    1
    13     2    14    1
    14     2    15    1
    15     4    16    1
    16     4    17    1
    17     5    18    1
    18     5    19    1
    19     7    20    1
    20     7    21    1
    21     8    22    1
    22     8    23    1
    23    10    24    1
    24    10    25    1
    25    10    26    1
