@<TRIPOS>MOLECULE
*****
 28 27 0 0 0
SMALL
GASTEIGER

@<TRIPOS>ATOM
      1 C           0.9189   -0.0470   -0.0348 C.3     1  UNL1       -0.0416
      2 C           2.4389   -0.0470   -0.0348 C.3     1  UNL1        0.0449
      3 O           2.9123    0.9037    0.9077 O.3     1  UNL1       -0.3778
      4 C           4.3323    0.9037    0.9077 C.3     1  UNL1        0.0710
      5 C           4.8389    1.9214    1.9167 C.3     1  UNL1        0.0711
      6 O           6.2589    1.9214    1.9167 O.3     1  UNL1       -0.3752
      7 C           6.7322    2.8721    2.8593 C.3     1  UNL1        0.0711
      8 C           8.2522    2.8721    2.8593 C.3     1  UNL1        0.0715
      9 O           8.7256    3.8228    3.8019 O.3     1  UNL1       -0.3703
     10 C          10.1456    3.8228    3.8019 C.3     1  UNL1        0.1028
     11 C          10.6522    4.8405    4.8109 C.2     1  UNL1        0.1458
     12 O          11.9017    5.0054    4.9744 O.2     1  UNL1       -0.2986
     13 H           0.5623   -0.7634   -0.7451 H       1  UNL1        0.0252
     14 H           0.5623    0.9263   -0.3001 H       1  UNL1        0.0252
     15 H           0.5623   -0.3039    0.9407 H       1  UNL1        0.0252
     16 H           2.7956    0.2099   -1.0104 H       1  UNL1        0.0557
     17 H           2.7956   -1.0203    0.2304 H       1  UNL1        0.0557
     18 H           4.6889    1.1606   -0.0678 H       1  UNL1        0.0583
     19 H           4.6889   -0.0696    1.1730 H       1  UNL1        0.0583
     20 H           4.4822    1.6645    2.8923 H       1  UNL1        0.0583
     21 H           4.4822    2.8947    1.6514 H       1  UNL1        0.0583
     22 H           6.3756    2.6152    3.8348 H       1  UNL1        0.0583
     23 H           6.3756    3.8454    2.5940 H       1  UNL1        0.0583
     24 H           8.6089    3.1290    1.8837 H       1  UNL1        0.0583
     25 H           8.6089    1.8988    3.1246 H       1  UNL1        0.0583
     26 H          10.5022    4.0797    2.8263 H       1  UNL1        0.0636
     27 H          10.5022    2.8495    4.0672 H       1  UNL1        0.0636
     28 H           9.9816    5.3976    5.3631 H       1  UNL1        0.1051
@<TRIPOS>BOND
     1     1     2    1
     2     2     3    1
     3     3     4    1
     4     4     5    1
     5     5     6    1
     6     6     7    1
     7     7     8    1
     8     8     9    1
     9     9    10    1
    10    10    11    1
    11    11    12    2
    12     1    13    1
    13     1    14    1
    14     1    15    1
    15     2    16    1
    16     2    17    1
    17     4    18    1
    18     4    19    1
    19     5    20    1
    20     5    21    1
    21     7    22    1
    22     7    23    1
    23     8    24    1
    24     8    25    1
    25    10    26    1
    26    10    27    1
    27    11    28    1
