@<TRIPOS>MOLECULE
*****
 23 22 0 0 0
SMALL
GASTEIGER

@<TRIPOS>ATOM
      1 C           0.9491   -0.0587    0.0629 C.3     1  UNL1       -0.0652
      2 C           2.4691   -0.0587    0.0629 C.3     1  UNL1       -0.0545
      3 C           2.9757   -0.1055    1.4952 C.3     1  UNL1       -0.0376
      4 C           4.4957   -0.1055    1.4952 C.3     1  UNL1        0.0116
      5 N           4.9857   -0.1507    2.8804 N.am    1  UNL1       -0.3150
      6 C           6.4310   -0.1595    3.1489 C.2     1  UNL1        0.2199
      7 O           7.2568   -0.1280    2.1834 O.2     1  UNL1       -0.2754
      8 C           6.9376   -0.2062    4.5812 C.3     1  UNL1        0.0793
      9 C           8.4576   -0.2062    4.5812 C.2     1  UNL1        0.1290
     10 O           9.0931   -0.2421    5.6812 O.2     1  UNL1       -0.3005
     11 H           0.5924   -0.0258   -0.9454 H       1  UNL1        0.0230
     12 H           0.5924    0.7980    0.5955 H       1  UNL1        0.0230
     13 H           0.5924   -0.9484    0.5385 H       1  UNL1        0.0230
     14 H           2.8257    0.8309   -0.4127 H       1  UNL1        0.0263
     15 H           2.8257   -0.9155   -0.4698 H       1  UNL1        0.0263
     16 H           2.6190   -0.9951    1.9708 H       1  UNL1        0.0280
     17 H           2.6190    0.7512    2.0278 H       1  UNL1        0.0280
     18 H           4.8524    0.7842    1.0196 H       1  UNL1        0.0462
     19 H           4.8524   -0.9622    0.9626 H       1  UNL1        0.0462
     20 H           4.3459   -0.1751    3.6283 H       1  UNL1        0.1487
     21 H           6.5810   -1.0959    5.0568 H       1  UNL1        0.0433
     22 H           6.5809    0.6505    5.1138 H       1  UNL1        0.0433
     23 H           8.9736   -0.1771    3.6879 H       1  UNL1        0.1031
@<TRIPOS>BOND
     1     1     2    1
     2     2     3    1
     3     3     4    1
     4     4     5    1
     5     5     6   am
     6     6     7    2
     7     6     8    1
     8     8     9    1
     9     9    10    2
    10     1    11    1
    11     1    12    1
    12     1    13    1
    13     2    14    1
    14     2    15    1
    15     3    16    1
    16     3    17    1
    17     4    18    1
    18     4    19    1
    19     5    20    1
    20     8    21    1
    21     8    22    1
    22     9    23    1
