@<TRIPOS>MOLECULE
*****
 16 15 0 0 0
SMALL
GASTEIGER

@<TRIPOS>ATOM
      1 C           1.0138   -0.0572    0.0808 C.3     1  UNL1        0.0364
      2 O           2.4338   -0.0572    0.0808 O.3     1  UNL1       -0.3829
      3 C           2.9071    1.1683    0.6197 C.3     1  UNL1        0.0494
      4 C           4.4271    1.1683    0.6197 C.3     1  UNL1       -0.0062
      5 C           4.9338    2.4802    1.1965 C.3     1  UNL1        0.0463
      6 O           6.3538    2.4802    1.1965 O.3     1  UNL1       -0.3949
      7 H           0.6572   -0.9807   -0.3252 H       1  UNL1        0.0523
      8 H           0.6572    0.7562   -0.5159 H       1  UNL1        0.0523
      9 H           0.6571    0.0528    1.0836 H       1  UNL1        0.0523
     10 H           2.5505    1.2784    1.6225 H       1  UNL1        0.0560
     11 H           2.5505    1.9817    0.0230 H       1  UNL1        0.0560
     12 H           4.7838    1.0582   -0.3831 H       1  UNL1        0.0309
     13 H           4.7838    0.3549    1.2164 H       1  UNL1        0.0309
     14 H           4.5771    2.5902    2.1993 H       1  UNL1        0.0558
     15 H           4.5771    3.2936    0.5998 H       1  UNL1        0.0558
     16 H           6.6771    1.7428    1.7375 H       1  UNL1        0.2094
@<TRIPOS>BOND
     1     1     2    1
     2     2     3    1
     3     3     4    1
     4     4     5    1
     5     5     6    1
     6     1     7    1
     7     1     8    1
     8     1     9    1
     9     3    10    1
    10     3    11    1
    11     4    12    1
    12     4    13    1
    13     5    14    1
    14     5    15    1
    15     6    16    1
