@<TRIPOS>MOLECULE
*****
 20 19 0 0 0
SMALL
GASTEIGER

@<TRIPOS>ATOM
      1 O           0.9836    0.0851    0.0499 O.2     1  UNL1       -0.2795
      2 C           2.2545    0.0851    0.0499 C.2     1  UNL1        0.2000
      3 N           2.9895    1.1736   -0.6102 N.am    1  UNL1       -0.3157
      4 C           4.4595    1.1736   -0.6102 C.3     1  UNL1        0.0348
      5 C           4.9662    2.3989   -1.3533 C.3     1  UNL1        0.0632
      6 O           6.3862    2.3989   -1.3533 O.3     1  UNL1       -0.3760
      7 C           6.8595    3.5437   -2.0476 C.3     1  UNL1        0.0708
      8 C           8.3795    3.5437   -2.0476 C.3     1  UNL1        0.0676
      9 O           8.8528    4.6884   -2.7418 O.3     1  UNL1       -0.3927
     10 H           2.7705   -0.6791    0.5134 H       1  UNL1        0.1251
     11 H           2.4973    1.9026   -1.0523 H       1  UNL1        0.1485
     12 H           4.8162    0.2893   -1.0957 H       1  UNL1        0.0484
     13 H           4.8162    1.1953    0.3983 H       1  UNL1        0.0484
     14 H           4.6095    3.2833   -0.8679 H       1  UNL1        0.0575
     15 H           4.6095    2.3772   -2.3619 H       1  UNL1        0.0575
     16 H           6.5028    4.4280   -1.5621 H       1  UNL1        0.0583
     17 H           6.5028    3.5219   -3.0561 H       1  UNL1        0.0583
     18 H           8.7362    2.6594   -2.5330 H       1  UNL1        0.0580
     19 H           8.7362    3.5654   -1.0390 H       1  UNL1        0.0580
     20 H           8.5295    4.6687   -3.6561 H       1  UNL1        0.2095
@<TRIPOS>BOND
     1     1     2    2
     2     2     3   am
     3     3     4    1
     4     4     5    1
     5     5     6    1
     6     6     7    1
     7     7     8    1
     8     8     9    1
     9     2    10    1
    10     3    11    1
    11     4    12    1
    12     4    13    1
    13     5    14    1
    14     5    15    1
    15     7    16    1
    16     7    17    1
    17     8    18    1
    18     8    19    1
    19     9    20    1
