@<TRIPOS>MOLECULE
*****
 22 21 0 0 0
SMALL
GASTEIGER

@<TRIPOS>ATOM
      1 C           0.9595    0.0791    0.0459 C.3     1  UNL1       -0.0416
      2 C           2.4795    0.0791    0.0459 C.3     1  UNL1        0.0449
      3 O           2.9528   -0.8281   -0.9387 O.3     1  UNL1       -0.3778
      4 C           4.3728   -0.8281   -0.9387 C.3     1  UNL1        0.0710
      5 C           4.8795   -1.7991   -1.9927 C.3     1  UNL1        0.0710
      6 O           6.2995   -1.7991   -1.9927 O.3     1  UNL1       -0.3778
      7 C           6.7728   -2.7062   -2.9773 C.3     1  UNL1        0.0449
      8 C           8.2928   -2.7062   -2.9773 C.3     1  UNL1       -0.0416
      9 H           0.6029    0.7626    0.7879 H       1  UNL1        0.0252
     10 H           0.6029   -0.9052    0.2669 H       1  UNL1        0.0252
     11 H           0.6029    0.3798   -0.9170 H       1  UNL1        0.0252
     12 H           2.8362   -0.2217    1.0089 H       1  UNL1        0.0557
     13 H           2.8362    1.0634   -0.1751 H       1  UNL1        0.0557
     14 H           4.7295   -1.1288    0.0242 H       1  UNL1        0.0583
     15 H           4.7295    0.1562   -1.1597 H       1  UNL1        0.0583
     16 H           4.5228   -1.4983   -2.9556 H       1  UNL1        0.0583
     17 H           4.5228   -2.7834   -1.7717 H       1  UNL1        0.0583
     18 H           6.4162   -2.4054   -3.9402 H       1  UNL1        0.0557
     19 H           6.4162   -3.6905   -2.7563 H       1  UNL1        0.0557
     20 H           8.6495   -1.7219   -3.1983 H       1  UNL1        0.0252
     21 H           8.6495   -3.3897   -3.7192 H       1  UNL1        0.0252
     22 H           8.6495   -3.0070   -2.0144 H       1  UNL1        0.0252
@<TRIPOS>BOND
     1     1     2    1
     2     2     3    1
     3     3     4    1
     4     4     5    1
     5     5     6    1
     6     6     7    1
     7     7     8    1
     8     1     9    1
     9     1    10    1
    10     1    11    1
    11     2    12    1
    12     2    13    1
    13     4    14    1
    14     4    15    1
    15     5    16    1
    16     5    17    1
    17     7    18    1
    18     7    19    1
    19     8    20    1
    20     8    21    1
    21     8    22    1
