@<TRIPOS>MOLECULE
*****
 64 66 0 0 0
SMALL
GASTEIGER

@<TRIPOS>ATOM
      1 C           1.0846    0.0498    0.0189 C.3     1  UNL1       -0.0652
      2 C           2.6046    0.0498    0.0189 C.3     1  UNL1       -0.0545
      3 C           3.1113   -1.0899    0.8877 C.3     1  UNL1       -0.0373
      4 C           4.6313   -1.0899    0.8877 C.3     1  UNL1        0.0165
      5 N           5.1213   -2.1921    1.7279 N.am    1  UNL1       -0.2811
      6 C           4.1660   -3.0807    2.4053 C.3     1  UNL1        0.0412
      7 C           2.7476   -2.6463    2.0742 C.ar    1  UNL1       -0.0301
      8 C           1.6274   -3.3662    2.6229 C.ar    1  UNL1       -0.0571
      9 C           0.2834   -2.9547    2.3092 C.ar    1  UNL1       -0.0615
     10 C          -0.8368   -3.6746    2.8580 C.ar    1  UNL1       -0.0617
     11 C          -2.1808   -3.2630    2.5443 C.ar    1  UNL1       -0.0615
     12 C           2.5237   -1.5149    1.2117 C.ar    1  UNL1       -0.0571
     13 C           6.5665   -2.4057    1.8908 C.2     1  UNL1        0.3067
     14 O           7.3924   -1.6375    1.3051 O.2     1  UNL1       -0.2523
     15 N           7.0565   -3.5079    2.7310 N.am    1  UNL1       -0.2693
     16 C           8.5018   -3.7216    2.8938 C.ar    1  UNL1        0.0350
     17 C           8.9819   -4.8014    3.7170 C.ar    1  UNL1       -0.0370
     18 C          10.3978   -5.0107    3.8765 C.ar    1  UNL1       -0.0182
     19 C          10.8779   -6.0906    4.6997 C.ar    1  UNL1        0.1206
     20 O           9.9551   -6.9489    5.3540 O.3     1  UNL1       -0.4919
     21 C           8.5590   -6.7426    5.1967 C.3     1  UNL1        0.0913
     22 C           7.7990   -7.7894    5.9948 C.3     1  UNL1        0.0010
     23 C           6.3046   -7.5685    5.8264 C.3     1  UNL1        0.0463
     24 N           5.5696   -8.5810    6.5982 N.ar    1  UNL1       -0.2513
     25 C           4.1768   -8.5810    6.5982 C.ar    1  UNL1        0.0499
     26 C           3.4567   -9.5729    7.3543 C.ar    1  UNL1        0.0963
     27 C           4.2167  -10.6198    8.1523 C.3     1  UNL1        0.0393
     28 N           5.6619  -10.4061    7.9895 N.3     1  UNL1       -0.3248
     29 N           2.0639   -9.5729    7.3543 N.ar    1  UNL1       -0.1332
     30 N           6.2423   -9.5076    7.3045 N.ar    1  UNL1       -0.0654
     31 C          12.2938   -6.2999    4.8593 C.ar    1  UNL1       -0.0182
     32 C           9.4377   -2.8510    2.2302 C.ar    1  UNL1       -0.0370
     33 H           0.7280    0.8521   -0.5927 H       1  UNL1        0.0230
     34 H           0.7280    0.1783    1.0195 H       1  UNL1        0.0230
     35 H           0.7280   -0.8810   -0.3701 H       1  UNL1        0.0230
     36 H           2.9613    0.9806    0.4079 H       1  UNL1        0.0263
     37 H           2.9613   -0.0787   -0.9817 H       1  UNL1        0.0263
     38 H           2.7546   -2.0207    0.4987 H       1  UNL1        0.0280
     39 H           2.7546   -0.9614    1.8883 H       1  UNL1        0.0280
     40 H           4.9880   -0.1591    1.2767 H       1  UNL1        0.0465
     41 H           4.9880   -1.2184   -0.1129 H       1  UNL1        0.0465
     42 H           4.3177   -3.0273    3.4631 H       1  UNL1        0.0514
     43 H           4.3177   -4.0866    2.0735 H       1  UNL1        0.0514
     44 H           1.7878   -4.1770    3.2410 H       1  UNL1        0.0621
     45 H           0.1230   -2.1439    1.6912 H       1  UNL1        0.0618
     46 H          -0.6764   -4.4853    3.4760 H       1  UNL1        0.0618
     47 H          -3.2122   -3.2916    2.5660 H       1  UNL1        0.0618
     48 H           3.0083   -0.7903    0.6593 H       1  UNL1        0.0621
     49 H           6.4168   -4.1030    3.1846 H       1  UNL1        0.1564
     50 H           8.3112   -5.4252    4.1925 H       1  UNL1        0.0637
     51 H          11.0684   -4.3869    3.4010 H       1  UNL1        0.0655
     52 H           8.3005   -6.8260    4.1618 H       1  UNL1        0.0697
     53 H           8.3005   -5.7667    5.5514 H       1  UNL1        0.0697
     54 H           8.0575   -7.7060    7.0297 H       1  UNL1        0.0316
     55 H           8.0575   -8.7653    5.6401 H       1  UNL1        0.0316
     56 H           6.0461   -7.6520    4.7914 H       1  UNL1        0.0510
     57 H           6.0461   -6.5927    6.1810 H       1  UNL1        0.0510
     58 H           3.6608   -7.8702    6.0563 H       1  UNL1        0.0845
     59 H           3.9582  -11.5956    7.7977 H       1  UNL1        0.0488
     60 H           3.9582  -10.5363    9.1873 H       1  UNL1        0.0488
     61 H           5.9083  -10.4857    7.0029 H       1  UNL1        0.1186
     62 H           6.1719  -11.1087    8.5250 H       1  UNL1        0.1186
     63 H          13.1536   -6.7538    5.2053 H       1  UNL1        0.0655
     64 H           9.5021   -2.0319    1.6058 H       1  UNL1        0.0637
@<TRIPOS>BOND
     1     1     2    1
     2     2     3    1
     3     3     4    1
     4     4     5    1
     5     5     6    1
     6     6     7    1
     7     7     8   ar
     8     8     9   ar
     9     9    10   ar
    10    10    11   ar
    11    11    12   ar
    12     7    12   ar
    13     5    13   am
    14    13    14    2
    15    13    15   am
    16    15    16    1
    17    16    17   ar
    18    17    18   ar
    19    18    19   ar
    20    19    20    1
    21    20    21    1
    22    21    22    1
    23    22    23    1
    24    23    24    1
    25    24    25   ar
    26    25    26   ar
    27    26    27    1
    28    27    28    1
    29    26    29   ar
    30    29    30   ar
    31    24    30   ar
    32    19    31   ar
    33    31    32   ar
    34    16    32   ar
    35     1    33    1
    36     1    34    1
    37     1    35    1
    38     2    36    1
    39     2    37    1
    40     3    38    1
    41     3    39    1
    42     4    40    1
    43     4    41    1
    44     6    42    1
    45     6    43    1
    46     8    44    1
    47     9    45    1
    48    10    46    1
    49    11    47    1
    50    12    48    1
    51    15    49    1
    52    17    50    1
    53    18    51    1
    54    21    52    1
    55    21    53    1
    56    22    54    1
    57    22    55    1
    58    23    56    1
    59    23    57    1
    60    25    58    1
    61    27    59    1
    62    27    60    1
    63    28    61    1
    64    28    62    1
    65    31    63    1
    66    32    64    1
