@<TRIPOS>MOLECULE
*****
 16 15 0 0 0
SMALL
GASTEIGER

@<TRIPOS>ATOM
      1 C           1.0205   -0.0971   -0.0120 C.1     1  UNL1       -0.1192
      2 C           2.3244   -0.0971   -0.0120 C.1     1  UNL1       -0.1056
      3 C           3.8444   -0.0971   -0.0120 C.3     1  UNL1        0.0089
      4 C           4.3510   -1.3721   -0.6664 C.3     1  UNL1       -0.0424
      5 C           5.8710   -1.3721   -0.6664 C.3     1  UNL1       -0.0551
      6 C           6.3777   -2.6470   -1.3208 C.3     1  UNL1       -0.0652
      7 H           0.0265   -0.0971   -0.0120 H       1  UNL1        0.1228
      8 H           4.2010   -0.0473    0.9955 H       1  UNL1        0.0397
      9 H           4.2010    0.7505   -0.5590 H       1  UNL1        0.0397
     10 H           3.9943   -1.4219   -1.6740 H       1  UNL1        0.0274
     11 H           3.9943   -2.2198   -0.1195 H       1  UNL1        0.0274
     12 H           6.2277   -1.3223    0.3412 H       1  UNL1        0.0263
     13 H           6.2277   -0.5244   -1.2133 H       1  UNL1        0.0263
     14 H           6.0210   -3.4947   -0.7739 H       1  UNL1        0.0230
     15 H           7.4477   -2.6470   -1.3208 H       1  UNL1        0.0230
     16 H           6.0210   -2.6968   -2.3284 H       1  UNL1        0.0230
@<TRIPOS>BOND
     1     1     2    3
     2     2     3    1
     3     3     4    1
     4     4     5    1
     5     5     6    1
     6     1     7    1
     7     3     8    1
     8     3     9    1
     9     4    10    1
    10     4    11    1
    11     5    12    1
    12     5    13    1
    13     6    14    1
    14     6    15    1
    15     6    16    1
