@<TRIPOS>MOLECULE
*****
 39 38 0 0 0
SMALL
GASTEIGER

@<TRIPOS>ATOM
      1 N           0.9408   -0.0602    0.0535 N.3     1  UNL1       -0.3300
      2 C           2.4108   -0.0602    0.0535 C.3     1  UNL1       -0.0069
      3 C           2.9174    0.9491   -0.9638 C.3     1  UNL1       -0.0406
      4 C           4.4374    0.9491   -0.9638 C.3     1  UNL1       -0.0519
      5 C           4.9441    1.9583   -1.9812 C.3     1  UNL1       -0.0530
      6 C           6.4641    1.9583   -1.9812 C.3     1  UNL1       -0.0531
      7 C           6.9708    2.9676   -2.9986 C.3     1  UNL1       -0.0531
      8 C           8.4908    2.9676   -2.9986 C.3     1  UNL1       -0.0531
      9 C           8.9974    3.9769   -4.0160 C.3     1  UNL1       -0.0530
     10 C          10.5174    3.9769   -4.0160 C.3     1  UNL1       -0.0519
     11 C          11.0241    4.9861   -5.0334 C.3     1  UNL1       -0.0406
     12 C          12.5441    4.9861   -5.0334 C.3     1  UNL1       -0.0069
     13 N          13.0341    5.9622   -6.0173 N.3     1  UNL1       -0.3300
     14 H           0.6008   -0.7375    0.7363 H       1  UNL1        0.1182
     15 H           0.6008   -0.3128   -0.8744 H       1  UNL1        0.1182
     16 H           2.7674   -1.0357   -0.2037 H       1  UNL1        0.0422
     17 H           2.7674    0.2048    1.0269 H       1  UNL1        0.0422
     18 H           2.5608    1.9245   -0.7066 H       1  UNL1        0.0277
     19 H           2.5608    0.6841   -1.9372 H       1  UNL1        0.0277
     20 H           4.7941   -0.0264   -1.2210 H       1  UNL1        0.0266
     21 H           4.7941    1.2140    0.0095 H       1  UNL1        0.0266
     22 H           4.5874    2.9338   -1.7240 H       1  UNL1        0.0265
     23 H           4.5874    1.6933   -2.9546 H       1  UNL1        0.0265
     24 H           6.8208    0.9829   -2.2384 H       1  UNL1        0.0265
     25 H           6.8208    2.2233   -1.0078 H       1  UNL1        0.0265
     26 H           6.6141    3.9431   -2.7414 H       1  UNL1        0.0265
     27 H           6.6141    2.7026   -3.9720 H       1  UNL1        0.0265
     28 H           8.8474    1.9921   -3.2558 H       1  UNL1        0.0265
     29 H           8.8474    3.2326   -2.0252 H       1  UNL1        0.0265
     30 H           8.6408    4.9523   -3.7588 H       1  UNL1        0.0265
     31 H           8.6408    3.7119   -4.9894 H       1  UNL1        0.0265
     32 H          10.8741    3.0014   -4.2732 H       1  UNL1        0.0266
     33 H          10.8741    4.2419   -3.0426 H       1  UNL1        0.0266
     34 H          10.6674    5.9616   -4.7762 H       1  UNL1        0.0277
     35 H          10.6674    4.7211   -6.0067 H       1  UNL1        0.0277
     36 H          12.9007    4.0107   -5.2906 H       1  UNL1        0.0422
     37 H          12.9007    5.2511   -4.0600 H       1  UNL1        0.0422
     38 H          12.6941    5.7096   -6.9452 H       1  UNL1        0.1182
     39 H          14.0541    5.9622   -6.0173 H       1  UNL1        0.1182
@<TRIPOS>BOND
     1     1     2    1
     2     2     3    1
     3     3     4    1
     4     4     5    1
     5     5     6    1
     6     6     7    1
     7     7     8    1
     8     8     9    1
     9     9    10    1
    10    10    11    1
    11    11    12    1
    12    12    13    1
    13     1    14    1
    14     1    15    1
    15     2    16    1
    16     2    17    1
    17     3    18    1
    18     3    19    1
    19     4    20    1
    20     4    21    1
    21     5    22    1
    22     5    23    1
    23     6    24    1
    24     6    25    1
    25     7    26    1
    26     7    27    1
    27     8    28    1
    28     8    29    1
    29     9    30    1
    30     9    31    1
    31    10    32    1
    32    10    33    1
    33    11    34    1
    34    11    35    1
    35    12    36    1
    36    12    37    1
    37    13    38    1
    38    13    39    1
