@<TRIPOS>MOLECULE
*****
 20 20 0 0 0
SMALL
GASTEIGER

@<TRIPOS>ATOM
      1 N           0.9864   -0.0861   -0.0490 N.3     1  UNL1       -0.3283
      2 C           2.4564   -0.0861   -0.0490 C.3     1  UNL1        0.0128
      3 C           2.9631   -1.4939    0.2190 C.3     1  UNL1        0.0554
      4 N           4.4331   -1.4939    0.2190 N.ar    1  UNL1       -0.2502
      5 C           5.1295   -2.6788    0.4446 C.ar    1  UNL1        0.0510
      6 C           6.5697   -2.6788    0.4446 C.ar    1  UNL1        0.1081
      7 C           7.3297   -1.3857    0.1984 C.3     1  UNL1        0.0894
      8 O           6.4070   -0.3254   -0.0035 O.3     1  UNL1       -0.3888
      9 N           7.2661   -3.8637    0.6702 N.ar    1  UNL1       -0.1322
     10 N           5.1058   -0.3492    0.0011 N.ar    1  UNL1       -0.0653
     11 H           0.6465    0.8586   -0.2289 H       1  UNL1        0.1183
     12 H           0.6464   -0.4027    0.8590 H       1  UNL1        0.1183
     13 H           2.8131    0.5728    0.7149 H       1  UNL1        0.0440
     14 H           2.8131    0.2460   -1.0016 H       1  UNL1        0.0440
     15 H           2.6064   -2.1528   -0.5449 H       1  UNL1        0.0522
     16 H           2.6064   -1.8260    1.1716 H       1  UNL1        0.0522
     17 H           4.6135   -3.5568    0.6118 H       1  UNL1        0.0846
     18 H           7.9449   -1.4934   -0.6704 H       1  UNL1        0.0624
     19 H           7.9449   -1.1666    1.0460 H       1  UNL1        0.0624
     20 H           5.8493   -0.5240   -0.7719 H       1  UNL1        0.2099
@<TRIPOS>BOND
     1     1     2    1
     2     2     3    1
     3     3     4    1
     4     4     5   ar
     5     5     6   ar
     6     6     7    1
     7     7     8    1
     8     6     9   ar
     9     9    10   ar
    10     4    10   ar
    11     1    11    1
    12     1    12    1
    13     2    13    1
    14     2    14    1
    15     3    15    1
    16     3    16    1
    17     5    17    1
    18     7    18    1
    19     7    19    1
    20     8    20    1
