@<TRIPOS>MOLECULE
*****
 38 38 0 0 0
SMALL
GASTEIGER

@<TRIPOS>ATOM
      1 C           1.0199    0.0894    0.0402 C.3     1  UNL1       -0.0653
      2 C           2.5399    0.0894    0.0402 C.3     1  UNL1       -0.0559
      3 C           3.0466    1.3904   -0.5607 C.3     1  UNL1       -0.0533
      4 C           4.5666    1.3904   -0.5607 C.3     1  UNL1       -0.0530
      5 C           5.0732    2.6914   -1.1615 C.3     1  UNL1       -0.0519
      6 C           6.5932    2.6914   -1.1615 C.3     1  UNL1       -0.0402
      7 C           7.0999    3.9924   -1.7624 C.3     1  UNL1       -0.0011
      8 N           8.5699    3.9924   -1.7624 N.3     1  UNL1       -0.3023
      9 C           9.0599    5.2506   -2.3435 C.3     1  UNL1       -0.0011
     10 C          10.5799    5.2506   -2.3435 C.3     1  UNL1       -0.0402
     11 C          11.0866    6.5516   -2.9444 C.3     1  UNL1       -0.0507
     12 C          12.6066    6.5516   -2.9444 C.3     1  UNL1       -0.0402
     13 C           9.0599    2.8600   -2.5615 C.3     1  UNL1       -0.0011
     14 H           0.6633   -0.8265    0.4632 H       1  UNL1        0.0230
     15 H           0.6633    0.1810   -0.9644 H       1  UNL1        0.0230
     16 H           0.6633    0.9136    0.6219 H       1  UNL1        0.0230
     17 H           2.8966   -0.7349   -0.5414 H       1  UNL1        0.0263
     18 H           2.8966   -0.0022    1.0449 H       1  UNL1        0.0263
     19 H           2.6899    2.2146    0.0210 H       1  UNL1        0.0265
     20 H           2.6899    1.4820   -1.5653 H       1  UNL1        0.0265
     21 H           4.9233    0.5661   -1.1423 H       1  UNL1        0.0265
     22 H           4.9233    1.2988    0.4440 H       1  UNL1        0.0265
     23 H           4.7166    3.5156   -0.5799 H       1  UNL1        0.0266
     24 H           4.7166    2.7830   -2.1662 H       1  UNL1        0.0266
     25 H           6.9499    1.8672   -1.7432 H       1  UNL1        0.0278
     26 H           6.9499    2.5998   -0.1569 H       1  UNL1        0.0278
     27 H           6.7432    4.8166   -1.1808 H       1  UNL1        0.0426
     28 H           6.7432    4.0840   -2.7671 H       1  UNL1        0.0426
     29 H           8.7032    6.0749   -1.7619 H       1  UNL1        0.0426
     30 H           8.7032    5.3422   -3.3482 H       1  UNL1        0.0426
     31 H          10.9366    4.4264   -2.9252 H       1  UNL1        0.0278
     32 H          10.9366    5.1590   -1.3389 H       1  UNL1        0.0278
     33 H          10.7299    7.3759   -2.3627 H       1  UNL1        0.0266
     34 H          10.7299    6.6433   -3.9490 H       1  UNL1        0.0266
     35 H          13.1746    6.8834   -2.1005 H       1  UNL1        0.0278
     36 H          13.4325    6.8429   -3.5591 H       1  UNL1        0.0278
     37 H           9.3305    1.9662   -2.0392 H       1  UNL1        0.0426
     38 H           8.5614    2.3259   -3.3432 H       1  UNL1        0.0426
@<TRIPOS>BOND
     1     1     2    1
     2     2     3    1
     3     3     4    1
     4     4     5    1
     5     5     6    1
     6     6     7    1
     7     7     8    1
     8     8     9    1
     9     9    10    1
    10    10    11    1
    11    11    12    1
    12    12    13    1
    13     8    13    1
    14     1    14    1
    15     1    15    1
    16     1    16    1
    17     2    17    1
    18     2    18    1
    19     3    19    1
    20     3    20    1
    21     4    21    1
    22     4    22    1
    23     5    23    1
    24     5    24    1
    25     6    25    1
    26     6    26    1
    27     7    27    1
    28     7    28    1
    29     9    29    1
    30     9    30    1
    31    10    31    1
    32    10    32    1
    33    11    33    1
    34    11    34    1
    35    12    35    1
    36    12    36    1
    37    13    37    1
    38    13    38    1
