@<TRIPOS>MOLECULE
*****
 37 38 0 0 0
SMALL
GASTEIGER

@<TRIPOS>ATOM
      1 O           1.0474    0.0319   -0.0821 O.2     1  UNL1       -0.2793
      2 C           2.3183    0.0319   -0.0821 C.2     1  UNL1        0.2025
      3 N           3.0533   -0.8523   -0.9980 N.am    1  UNL1       -0.3040
      4 C           4.5233   -0.8523   -0.9980 C.3     1  UNL1        0.0147
      5 C           5.0300   -1.8476   -2.0291 C.3     1  UNL1       -0.0331
      6 C           6.5500   -1.8476   -2.0291 C.3     1  UNL1       -0.0254
      7 C           7.0567   -2.2429   -0.6516 C.3     1  UNL1        0.0019
      8 N           6.5667   -1.2803    0.3455 N.3     1  UNL1       -0.2993
      9 C           7.0567   -1.6626    1.6777 C.3     1  UNL1       -0.0009
     10 C           6.5500   -0.6673    2.7088 C.3     1  UNL1       -0.0376
     11 C           7.0567   -1.0626    4.0862 C.3     1  UNL1       -0.0194
     12 C           6.5500   -0.0673    5.1173 C.3     1  UNL1        0.1136
     13 F           6.1861    1.0250    5.7831 F       1  UNL1       -0.2442
     14 C           5.0967   -1.2803    0.3456 C.3     1  UNL1        0.0301
     15 C           7.0567   -2.8428   -3.0601 C.3     1  UNL1       -0.0331
     16 C           2.3183   -1.7364   -1.9139 C.3     1  UNL1        0.0147
     17 H           2.8343    0.6526    0.5610 H       1  UNL1        0.1253
     18 H           4.8800   -1.1305   -0.0283 H       1  UNL1        0.0464
     19 H           4.8800    0.1266   -1.2418 H       1  UNL1        0.0464
     20 H           4.6733   -1.5693   -2.9987 H       1  UNL1        0.0283
     21 H           4.6733   -2.8265   -1.7852 H       1  UNL1        0.0283
     22 H           6.9067   -0.8687   -2.2729 H       1  UNL1        0.0314
     23 H           8.1267   -2.2429   -0.6516 H       1  UNL1        0.0429
     24 H           6.7000   -3.2217   -0.4078 H       1  UNL1        0.0429
     25 H           8.1267   -1.6626    1.6777 H       1  UNL1        0.0427
     26 H           6.7000   -2.6415    1.9216 H       1  UNL1        0.0427
     27 H           5.4800   -0.6673    2.7088 H       1  UNL1        0.0278
     28 H           6.9067    0.3116    2.4649 H       1  UNL1        0.0278
     29 H           8.1267   -1.0626    4.0862 H       1  UNL1        0.0294
     30 H           6.7000   -2.0415    4.3301 H       1  UNL1        0.0294
     31 H           6.7613   -0.0014    6.1642 H       1  UNL1        0.0664
     32 H           4.6019   -0.5247   -0.2281 H       1  UNL1        0.0455
     33 H           4.4264   -2.0500    0.0243 H       1  UNL1        0.0455
     34 H           7.4969   -3.7724   -2.7652 H       1  UNL1        0.0283
     35 H           7.6904   -2.8482   -3.9223 H       1  UNL1        0.0283
     36 H           1.7405   -2.5167   -1.4644 H       1  UNL1        0.0464
     37 H           1.5525   -1.4419   -2.6007 H       1  UNL1        0.0464
@<TRIPOS>BOND
     1     1     2    2
     2     2     3   am
     3     3     4    1
     4     4     5    1
     5     5     6    1
     6     6     7    1
     7     7     8    1
     8     8     9    1
     9     9    10    1
    10    10    11    1
    11    11    12    1
    12    12    14    1
    13     8    14    1
    14     6    15    1
    15    15    16    1
    16     3    16    1
    17    12    13    1
    18     2    17    1
    19     4    18    1
    20     4    19    1
    21     5    20    1
    22     5    21    1
    23     6    22    1
    24     7    23    1
    25     7    24    1
    26     9    25    1
    27     9    26    1
    28    10    27    1
    29    10    28    1
    30    11    29    1
    31    11    30    1
    32    12    31    1
    33    14    32    1
    34    14    33    1
    35    15    34    1
    36    15    35    1
    37    16    36    1
    38    16    37    1
