@<TRIPOS>MOLECULE
*****
 12 11 0 0 0
SMALL
GASTEIGER

@<TRIPOS>ATOM
      1 C           0.9462    0.0675   -0.0505 C.3     1  UNL1        0.0000
      2 N           2.4162    0.0675   -0.0505 N.am    1  UNL1       -0.3186
      3 C           3.1512    0.6083    1.1019 C.2     1  UNL1        0.2097
      4 C           2.3912    1.1676    2.2936 C.3     1  UNL1        0.0121
      5 O           4.4221    0.6083    1.1019 O.2     1  UNL1       -0.2761
      6 H           0.5895   -0.3611   -0.9637 H       1  UNL1        0.0426
      7 H           0.5895    1.0726    0.0349 H       1  UNL1        0.0426
      8 H           0.5895   -0.5091    0.7773 H       1  UNL1        0.0426
      9 H           2.9084   -0.2948   -0.8223 H       1  UNL1        0.1483
     10 H           1.3392    1.0845    2.1166 H       1  UNL1        0.0322
     11 H           2.6497    2.1969    2.4303 H       1  UNL1        0.0322
     12 H           2.6497    0.6151    3.1727 H       1  UNL1        0.0322
@<TRIPOS>BOND
     1     1     2    1
     2     2     3   am
     3     3     4    1
     4     3     5    2
     5     1     6    1
     6     1     7    1
     7     1     8    1
     8     2     9    1
     9     4    10    1
    10     4    11    1
    11     4    12    1
