@<TRIPOS>MOLECULE
*****
 27 27 0 0 0
SMALL
GASTEIGER

@<TRIPOS>ATOM
      1 C           0.9098    0.0369   -0.0225 C.3     1  UNL1       -0.0648
      2 C           2.4298    0.0369   -0.0225 C.3     1  UNL1       -0.0476
      3 C           2.9365   -1.0926    0.8594 C.3     1  UNL1        0.0239
      4 C           4.4565   -1.0926    0.8594 C.2     1  UNL1        0.2156
      5 O           5.0920   -0.2251    0.1821 O.2     1  UNL1       -0.2756
      6 N           5.1915   -2.0960    1.6429 N.am    1  UNL1       -0.2991
      7 C           6.6615   -2.0960    1.6429 C.3     1  UNL1        0.0272
      8 C           7.1682   -3.2255    2.5249 C.3     1  UNL1        0.0118
      9 N           8.6382   -3.2255    2.5249 N.3     1  UNL1       -0.3130
     10 C           9.1282   -4.3179    3.3779 C.3     1  UNL1        0.0118
     11 C           4.4565   -3.0994    2.4264 C.3     1  UNL1        0.0272
     12 H           0.5532    0.8321   -0.6434 H       1  UNL1        0.0230
     13 H           0.5532    0.1771    0.9765 H       1  UNL1        0.0230
     14 H           0.5532   -0.8983   -0.4007 H       1  UNL1        0.0230
     15 H           2.7865    0.9722    0.3556 H       1  UNL1        0.0267
     16 H           2.7865   -0.1032   -1.0216 H       1  UNL1        0.0267
     17 H           2.5798   -2.0278    0.4813 H       1  UNL1        0.0358
     18 H           2.5798   -0.9525    1.8585 H       1  UNL1        0.0358
     19 H           7.0182   -1.1607    2.0211 H       1  UNL1        0.0477
     20 H           7.0182   -2.2361    0.6439 H       1  UNL1        0.0477
     21 H           6.8115   -4.1607    2.1468 H       1  UNL1        0.0439
     22 H           6.8115   -3.0854    3.5239 H       1  UNL1        0.0439
     23 H           8.9782   -2.3340    2.8854 H       1  UNL1        0.1220
     24 H           9.5694   -4.1210    4.3326 H       1  UNL1        0.0439
     25 H           9.7630   -5.1748    3.2913 H       1  UNL1        0.0439
     26 H           3.8792   -2.7350    3.2503 H       1  UNL1        0.0477
     27 H           3.6903   -3.7525    2.0640 H       1  UNL1        0.0477
@<TRIPOS>BOND
     1     1     2    1
     2     2     3    1
     3     3     4    1
     4     4     5    2
     5     4     6   am
     6     6     7    1
     7     7     8    1
     8     8     9    1
     9     9    10    1
    10    10    11    1
    11     6    11    1
    12     1    12    1
    13     1    13    1
    14     1    14    1
    15     2    15    1
    16     2    16    1
    17     3    17    1
    18     3    18    1
    19     7    19    1
    20     7    20    1
    21     8    21    1
    22     8    22    1
    23     9    23    1
    24    10    24    1
    25    10    25    1
    26    11    26    1
    27    11    27    1
