@<TRIPOS>MOLECULE
*****
 19 19 0 0 0
SMALL
GASTEIGER

@<TRIPOS>ATOM
      1 C           0.9767   -0.0300   -0.0925 C.3     1  UNL1       -0.0127
      2 N           2.4467   -0.0300   -0.0925 N.3     1  UNL1       -0.3029
      3 C           2.9367   -1.2298    0.6012 C.3     1  UNL1        0.0112
      4 C           4.4567   -1.2298    0.6012 C.3     1  UNL1        0.0087
      5 N           4.9467   -2.4296    1.2949 N.3     1  UNL1       -0.3136
      6 C           6.4167   -2.4296    1.2949 C.3     1  UNL1        0.0087
      7 C           2.9367    1.1707    0.5997 C.3     1  UNL1        0.0112
      8 H           0.6200   -0.9039   -0.5964 H       1  UNL1        0.0391
      9 H           0.6200    0.8434   -0.5975 H       1  UNL1        0.0391
     10 H           0.6200   -0.0293    0.9163 H       1  UNL1        0.0391
     11 H           2.5800   -2.1038    0.0974 H       1  UNL1        0.0439
     12 H           2.5800   -1.2292    1.6100 H       1  UNL1        0.0439
     13 H           4.8134   -0.3558    1.1051 H       1  UNL1        0.0437
     14 H           4.8134   -1.2304   -0.4076 H       1  UNL1        0.0437
     15 H           4.6067   -3.2627    0.8146 H       1  UNL1        0.1220
     16 H           6.9843   -2.8347    0.4834 H       1  UNL1        0.0437
     17 H           7.2418   -2.6673    1.9334 H       1  UNL1        0.0437
     18 H           3.2084    2.0132   -0.0014 H       1  UNL1        0.0439
     19 H           2.4402    1.7754    1.3296 H       1  UNL1        0.0439
@<TRIPOS>BOND
     1     1     2    1
     2     2     3    1
     3     3     4    1
     4     4     5    1
     5     5     6    1
     6     6     7    1
     7     2     7    1
     8     1     8    1
     9     1     9    1
    10     1    10    1
    11     3    11    1
    12     3    12    1
    13     4    13    1
    14     4    14    1
    15     5    15    1
    16     6    16    1
    17     6    17    1
    18     7    18    1
    19     7    19    1
