@<TRIPOS>MOLECULE
*****
 32 31 0 0 0
SMALL
GASTEIGER

@<TRIPOS>ATOM
      1 C           1.0495    0.0703   -0.0510 C.3     1  UNL1       -0.0653
      2 C           2.5695    0.0703   -0.0510 C.3     1  UNL1       -0.0559
      3 C           3.0762    0.5931    1.2833 C.3     1  UNL1       -0.0533
      4 C           4.5962    0.5931    1.2833 C.3     1  UNL1       -0.0530
      5 C           5.1029    1.1159    2.6176 C.3     1  UNL1       -0.0516
      6 C           6.6229    1.1159    2.6176 C.3     1  UNL1       -0.0374
      7 C           7.1295    1.6387    3.9519 C.3     1  UNL1        0.0116
      8 N           8.5995    1.6387    3.9519 N.am    1  UNL1       -0.3150
      9 C           9.3345    2.1031    5.1372 C.2     1  UNL1        0.2199
     10 O           8.6991    2.5047    6.1620 O.2     1  UNL1       -0.2754
     11 C          10.8545    2.1031    5.1372 C.3     1  UNL1        0.0793
     12 C          11.3612    2.6259    6.4715 C.2     1  UNL1        0.1290
     13 O          12.6107    2.7107    6.6877 O.2     1  UNL1       -0.3005
     14 H           0.6929   -0.2977   -0.9903 H       1  UNL1        0.0230
     15 H           0.6929    1.0677    0.0999 H       1  UNL1        0.0230
     16 H           0.6929   -0.5591    0.7373 H       1  UNL1        0.0230
     17 H           2.9262    0.6997   -0.8394 H       1  UNL1        0.0263
     18 H           2.9262   -0.9272   -0.2020 H       1  UNL1        0.0263
     19 H           2.7195   -0.0363    2.0716 H       1  UNL1        0.0265
     20 H           2.7195    1.5905    1.4342 H       1  UNL1        0.0265
     21 H           4.9529    1.2225    0.4949 H       1  UNL1        0.0265
     22 H           4.9529   -0.4044    1.1323 H       1  UNL1        0.0265
     23 H           4.7462    0.4865    3.4059 H       1  UNL1        0.0266
     24 H           4.7462    2.1134    2.7685 H       1  UNL1        0.0266
     25 H           6.9795    1.7453    1.8292 H       1  UNL1        0.0280
     26 H           6.9795    0.1185    2.4666 H       1  UNL1        0.0280
     27 H           6.7729    1.0093    4.7402 H       1  UNL1        0.0462
     28 H           6.7728    2.6362    4.1028 H       1  UNL1        0.0462
     29 H           9.0918    1.3277    3.1580 H       1  UNL1        0.1487
     30 H          11.2112    2.7326    4.3488 H       1  UNL1        0.0433
     31 H          11.2112    1.1057    4.9863 H       1  UNL1        0.0433
     32 H          10.6906    2.9121    7.2018 H       1  UNL1        0.1031
@<TRIPOS>BOND
     1     1     2    1
     2     2     3    1
     3     3     4    1
     4     4     5    1
     5     5     6    1
     6     6     7    1
     7     7     8    1
     8     8     9   am
     9     9    10    2
    10     9    11    1
    11    11    12    1
    12    12    13    2
    13     1    14    1
    14     1    15    1
    15     1    16    1
    16     2    17    1
    17     2    18    1
    18     3    19    1
    19     3    20    1
    20     4    21    1
    21     4    22    1
    22     5    23    1
    23     5    24    1
    24     6    25    1
    25     6    26    1
    26     7    27    1
    27     7    28    1
    28     8    29    1
    29    11    30    1
    30    11    31    1
    31    12    32    1
