@<TRIPOS>MOLECULE
*****
 36 37 0 0 0
SMALL
GASTEIGER

@<TRIPOS>ATOM
      1 O           0.9866    0.0988    0.0077 O.2     1  UNL1       -0.2793
      2 C           2.2575    0.0988    0.0077 C.2     1  UNL1        0.2026
      3 N           2.9925   -1.1176    0.3833 N.am    1  UNL1       -0.3016
      4 C           4.4625   -1.1176    0.3833 C.3     1  UNL1        0.0272
      5 C           4.9691   -2.4868    0.8062 C.3     1  UNL1        0.0148
      6 N           6.4391   -2.4868    0.8062 N.3     1  UNL1       -0.2991
      7 C           6.9291   -1.4705    1.7485 C.3     1  UNL1        0.0019
      8 C           6.4225   -0.1013    1.3256 C.3     1  UNL1       -0.0260
      9 C           6.9291    0.9496    2.3000 C.3     1  UNL1       -0.0364
     10 C           6.4225    2.3188    1.8771 C.3     1  UNL1       -0.0038
     11 N           6.9125    3.3351    2.8194 N.3     1  UNL1       -0.3160
     12 C           6.4225    4.6594    2.4104 C.3     1  UNL1       -0.0038
     13 C           4.9025   -0.1013    1.3256 C.3     1  UNL1       -0.0364
     14 C           6.9291   -3.8110    1.2152 C.3     1  UNL1        0.0148
     15 C           2.2575   -2.3339    0.7590 C.3     1  UNL1        0.0272
     16 H           2.7735    0.9527   -0.2561 H       1  UNL1        0.1253
     17 H           4.8191   -0.3778    1.0692 H       1  UNL1        0.0477
     18 H           4.8191   -0.8934   -0.6003 H       1  UNL1        0.0477
     19 H           4.6125   -3.2266    0.1204 H       1  UNL1        0.0442
     20 H           4.6125   -2.7109    1.7898 H       1  UNL1        0.0442
     21 H           7.9991   -1.4705    1.7485 H       1  UNL1        0.0429
     22 H           6.5725   -1.6946    2.7321 H       1  UNL1        0.0429
     23 H           6.7791    0.1229    0.3420 H       1  UNL1        0.0314
     24 H           7.9991    0.9496    2.3000 H       1  UNL1        0.0281
     25 H           6.5725    0.7255    3.2836 H       1  UNL1        0.0281
     26 H           5.3525    2.3189    1.8771 H       1  UNL1        0.0424
     27 H           6.7791    2.5430    0.8935 H       1  UNL1        0.0424
     28 H           7.9325    3.3351    2.8194 H       1  UNL1        0.1219
     29 H           6.9470    5.2623    1.6989 H       1  UNL1        0.0424
     30 H           6.0466    5.5652    2.8381 H       1  UNL1        0.0424
     31 H           4.4049   -0.2642    0.3925 H       1  UNL1        0.0281
     32 H           4.2263   -0.7339    1.8618 H       1  UNL1        0.0281
     33 H           7.3704   -3.9663    2.1776 H       1  UNL1        0.0442
     34 H           7.5640   -4.5812    0.8298 H       1  UNL1        0.0442
     35 H           1.6801   -2.2861    1.6586 H       1  UNL1        0.0477
     36 H           1.4913   -2.8156    0.1881 H       1  UNL1        0.0477
@<TRIPOS>BOND
     1     1     2    2
     2     2     3   am
     3     3     4    1
     4     4     5    1
     5     5     6    1
     6     6     7    1
     7     7     8    1
     8     8     9    1
     9     9    10    1
    10    10    11    1
    11    11    12    1
    12    12    13    1
    13     8    13    1
    14     6    14    1
    15    14    15    1
    16     3    15    1
    17     2    16    1
    18     4    17    1
    19     4    18    1
    20     5    19    1
    21     5    20    1
    22     7    21    1
    23     7    22    1
    24     8    23    1
    25     9    24    1
    26     9    25    1
    27    10    26    1
    28    10    27    1
    29    11    28    1
    30    12    29    1
    31    12    30    1
    32    13    31    1
    33    13    32    1
    34    14    33    1
    35    14    34    1
    36    15    35    1
    37    15    36    1
