@<TRIPOS>MOLECULE
*****
 36 35 0 0 0
SMALL
GASTEIGER

@<TRIPOS>ATOM
      1 C           0.9391    0.0394    0.0688 C.3     1  UNL1       -0.0416
      2 C           2.4591    0.0394    0.0688 C.3     1  UNL1        0.0449
      3 O           2.9324   -0.5315   -1.1421 O.3     1  UNL1       -0.3778
      4 C           4.3524   -0.5315   -1.1421 C.3     1  UNL1        0.0710
      5 C           4.8591   -1.1427   -2.4384 C.3     1  UNL1        0.0711
      6 O           6.2791   -1.1427   -2.4384 O.3     1  UNL1       -0.3752
      7 C           6.7524   -1.7136   -3.6493 C.3     1  UNL1        0.0711
      8 C           8.2724   -1.7136   -3.6493 C.3     1  UNL1        0.0711
      9 O           8.7457   -2.2845   -4.8603 O.3     1  UNL1       -0.3760
     10 C          10.1657   -2.2845   -4.8603 C.3     1  UNL1        0.0632
     11 C          10.6724   -2.8956   -6.1565 C.3     1  UNL1        0.0350
     12 N          12.1424   -2.8956   -6.1565 N.am    1  UNL1       -0.3133
     13 C          12.8774   -3.4385   -7.3080 C.2     1  UNL1        0.2100
     14 C          12.1174   -3.9999   -8.4987 C.3     1  UNL1        0.0121
     15 O          14.1483   -3.4385   -7.3080 O.2     1  UNL1       -0.2761
     16 H           0.5824    0.4696    0.9813 H       1  UNL1        0.0252
     17 H           0.5824   -0.9659   -0.0149 H       1  UNL1        0.0252
     18 H           0.5824    0.6145   -0.7600 H       1  UNL1        0.0252
     19 H           2.8157   -0.5357    0.8976 H       1  UNL1        0.0557
     20 H           2.8157    1.0447    0.1525 H       1  UNL1        0.0557
     21 H           4.7091   -1.1067   -0.3133 H       1  UNL1        0.0583
     22 H           4.7091    0.4738   -1.0585 H       1  UNL1        0.0583
     23 H           4.5024   -0.5675   -3.2672 H       1  UNL1        0.0583
     24 H           4.5024   -2.1480   -2.5221 H       1  UNL1        0.0583
     25 H           6.3957   -1.1384   -4.4781 H       1  UNL1        0.0583
     26 H           6.3957   -2.7189   -3.7330 H       1  UNL1        0.0583
     27 H           8.6290   -2.2887   -2.8205 H       1  UNL1        0.0583
     28 H           8.6290   -0.7082   -3.5657 H       1  UNL1        0.0583
     29 H          10.5224   -2.8596   -4.0315 H       1  UNL1        0.0575
     30 H          10.5224   -1.2792   -4.7766 H       1  UNL1        0.0575
     31 H          10.3157   -2.3205   -6.9853 H       1  UNL1        0.0484
     32 H          10.3157   -3.9009   -6.2402 H       1  UNL1        0.0484
     33 H          12.6346   -2.5320   -5.3853 H       1  UNL1        0.1488
     34 H          11.0654   -3.9165   -8.3218 H       1  UNL1        0.0322
     35 H          12.3759   -5.0294   -8.6336 H       1  UNL1        0.0322
     36 H          12.3759   -3.4489   -9.3788 H       1  UNL1        0.0322
@<TRIPOS>BOND
     1     1     2    1
     2     2     3    1
     3     3     4    1
     4     4     5    1
     5     5     6    1
     6     6     7    1
     7     7     8    1
     8     8     9    1
     9     9    10    1
    10    10    11    1
    11    11    12    1
    12    12    13   am
    13    13    14    1
    14    13    15    2
    15     1    16    1
    16     1    17    1
    17     1    18    1
    18     2    19    1
    19     2    20    1
    20     4    21    1
    21     4    22    1
    22     5    23    1
    23     5    24    1
    24     7    25    1
    25     7    26    1
    26     8    27    1
    27     8    28    1
    28    10    29    1
    29    10    30    1
    30    11    31    1
    31    11    32    1
    32    12    33    1
    33    14    34    1
    34    14    35    1
    35    14    36    1
