@<TRIPOS>MOLECULE
*****
 25 24 0 0 0
SMALL
GASTEIGER

@<TRIPOS>ATOM
      1 C           0.9740   -0.0151    0.0954 C.3     1  UNL1       -0.0653
      2 C           2.4940   -0.0151    0.0954 C.3     1  UNL1       -0.0559
      3 C           3.0007   -0.1664    1.5204 C.3     1  UNL1       -0.0533
      4 C           4.5207   -0.1664    1.5204 C.3     1  UNL1       -0.0530
      5 C           5.0274   -0.3177    2.9455 C.3     1  UNL1       -0.0519
      6 C           6.5474   -0.3177    2.9455 C.3     1  UNL1       -0.0406
      7 C           7.0540   -0.4690    4.3706 C.3     1  UNL1       -0.0069
      8 N           8.5240   -0.4690    4.3706 N.3     1  UNL1       -0.3300
      9 H           0.6174    0.0914   -0.9078 H       1  UNL1        0.0230
     10 H           0.6174    0.8004    0.6892 H       1  UNL1        0.0230
     11 H           0.6174   -0.9371    0.5047 H       1  UNL1        0.0230
     12 H           2.8507    0.9069   -0.3140 H       1  UNL1        0.0263
     13 H           2.8507   -0.8306   -0.4984 H       1  UNL1        0.0263
     14 H           2.6440   -1.0884    1.9298 H       1  UNL1        0.0265
     15 H           2.6440    0.6491    2.1143 H       1  UNL1        0.0265
     16 H           4.8774    0.7556    1.1111 H       1  UNL1        0.0265
     17 H           4.8774   -0.9819    0.9266 H       1  UNL1        0.0265
     18 H           4.6707   -1.2397    3.3549 H       1  UNL1        0.0266
     19 H           4.6707    0.4978    3.5393 H       1  UNL1        0.0266
     20 H           6.9040    0.6043    2.5362 H       1  UNL1        0.0277
     21 H           6.9040   -1.1332    2.3517 H       1  UNL1        0.0277
     22 H           6.6974   -1.3910    4.7799 H       1  UNL1        0.0422
     23 H           6.6974    0.3465    4.9644 H       1  UNL1        0.0422
     24 H           8.8640   -1.2464    3.8045 H       1  UNL1        0.1182
     25 H           8.8640   -0.5705    5.3269 H       1  UNL1        0.1182
@<TRIPOS>BOND
     1     1     2    1
     2     2     3    1
     3     3     4    1
     4     4     5    1
     5     5     6    1
     6     6     7    1
     7     7     8    1
     8     1     9    1
     9     1    10    1
    10     1    11    1
    11     2    12    1
    12     2    13    1
    13     3    14    1
    14     3    15    1
    15     4    16    1
    16     4    17    1
    17     5    18    1
    18     5    19    1
    19     6    20    1
    20     6    21    1
    21     7    22    1
    22     7    23    1
    23     8    24    1
    24     8    25    1
