@<TRIPOS>MOLECULE
*****
 31 32 0 0 0
SMALL
GASTEIGER

@<TRIPOS>ATOM
      1 C           1.0593   -0.0485    0.0643 C.3     1  UNL1       -0.0027
      2 C           2.5793   -0.0485    0.0643 C.3     1  UNL1       -0.0247
      3 C           3.0860    0.0580   -1.3648 C.3     1  UNL1        0.0128
      4 N           2.5960    1.3065   -1.9667 N.3     1  UNL1       -0.2969
      5 C           1.1260    1.3065   -1.9667 C.3     1  UNL1        0.0118
      6 C           0.6193    2.5974   -2.5890 C.3     1  UNL1        0.0087
      7 N          -0.8507    2.5974   -2.5890 N.3     1  UNL1       -0.3136
      8 C          -1.3407    3.8458   -3.1908 C.3     1  UNL1        0.0087
      9 C           3.0860    1.4095   -3.3488 C.3     1  UNL1        0.0118
     10 C           4.6060    0.0580   -1.3648 C.3     1  UNL1       -0.0247
     11 C           5.1126    0.1645   -2.7939 C.3     1  UNL1       -0.0027
     12 N           0.5693   -0.1515    1.4464 N.3     1  UNL1       -0.3159
     13 H           0.7026   -0.8822   -0.5036 H       1  UNL1        0.0424
     14 H           0.7026    0.8603   -0.3738 H       1  UNL1        0.0424
     15 H           2.9360   -0.9572    0.5024 H       1  UNL1        0.0293
     16 H           2.9360    0.7853    0.6322 H       1  UNL1        0.0293
     17 H           2.7293   -0.7757   -1.9328 H       1  UNL1        0.0463
     18 H           0.7693    1.2315   -0.9606 H       1  UNL1        0.0439
     19 H           0.7693    0.4727   -2.5346 H       1  UNL1        0.0439
     20 H           0.9760    2.6723   -3.5950 H       1  UNL1        0.0437
     21 H           0.9760    3.4311   -2.0211 H       1  UNL1        0.0437
     22 H          -1.1907    2.5259   -1.6300 H       1  UNL1        0.1220
     23 H          -1.4775    4.7377   -2.6157 H       1  UNL1        0.0437
     24 H          -2.1111    4.2004   -3.8433 H       1  UNL1        0.0437
     25 H           3.9667    1.9924   -3.5203 H       1  UNL1        0.0439
     26 H           3.4006    0.6294   -4.0102 H       1  UNL1        0.0439
     27 H           4.9626   -0.8507   -0.9267 H       1  UNL1        0.0293
     28 H           4.9626    0.8918   -0.7969 H       1  UNL1        0.0293
     29 H           5.4508   -0.6683   -3.3744 H       1  UNL1        0.0424
     30 H           5.6153    0.7692   -3.5196 H       1  UNL1        0.0424
     31 H           0.2470    0.6424    1.9998 H       1  UNL1        0.1219
@<TRIPOS>BOND
     1     1     2    1
     2     2     3    1
     3     3     4    1
     4     4     5    1
     5     5     6    1
     6     6     7    1
     7     7     8    1
     8     8     9    1
     9     4     9    1
    10     3    10    1
    11    10    11    1
    12    11    12    1
    13     1    12    1
    14     1    13    1
    15     1    14    1
    16     2    15    1
    17     2    16    1
    18     3    17    1
    19     5    18    1
    20     5    19    1
    21     6    20    1
    22     6    21    1
    23     7    22    1
    24     8    23    1
    25     8    24    1
    26     9    25    1
    27     9    26    1
    28    10    27    1
    29    10    28    1
    30    11    29    1
    31    11    30    1
    32    12    31    1
