@<TRIPOS>MOLECULE
*****
 67 69 0 0 0
SMALL
GASTEIGER

@<TRIPOS>ATOM
      1 C           1.0041   -0.0799    0.0600 C.3     1  UNL1       -0.0652
      2 C           2.5241   -0.0799    0.0600 C.3     1  UNL1       -0.0545
      3 C           3.0308    1.0336    0.9621 C.3     1  UNL1       -0.0373
      4 C           4.5508    1.0336    0.9621 C.3     1  UNL1        0.0165
      5 N           5.0408    2.1104    1.8346 N.am    1  UNL1       -0.2811
      6 C           4.0856    2.9785    2.5380 C.3     1  UNL1        0.0412
      7 C           2.6671    2.5542    2.1942 C.ar    1  UNL1       -0.0301
      8 C           1.5469    3.2575    2.7640 C.ar    1  UNL1       -0.0571
      9 C           0.2029    2.8554    2.4382 C.ar    1  UNL1       -0.0615
     10 C          -0.9173    3.5588    3.0081 C.ar    1  UNL1       -0.0617
     11 C          -2.2613    3.1567    2.6823 C.ar    1  UNL1       -0.0615
     12 C           2.4432    1.4488    1.2985 C.ar    1  UNL1       -0.0571
     13 C           6.4861    2.3191    2.0037 C.2     1  UNL1        0.3067
     14 O           7.3119    1.5686    1.3956 O.2     1  UNL1       -0.2523
     15 N           6.9760    3.3960    2.8762 N.am    1  UNL1       -0.2693
     16 C           8.4213    3.6047    3.0453 C.ar    1  UNL1        0.0350
     17 C           8.9014    4.6597    3.9001 C.ar    1  UNL1       -0.0370
     18 C          10.3173    4.8642    4.0657 C.ar    1  UNL1       -0.0182
     19 C          10.7974    5.9192    4.9205 C.ar    1  UNL1        0.1207
     20 O           9.8746    6.7578    5.6000 O.3     1  UNL1       -0.4901
     21 C           8.4785    6.5562    5.4366 C.3     1  UNL1        0.1091
     22 C           7.7185    7.5790    6.2653 C.3     1  UNL1        0.0772
     23 N           6.2733    7.3702    6.0962 N.ar    1  UNL1       -0.2482
     24 C           5.3682    8.1928    6.7627 C.ar    1  UNL1        0.0488
     25 C           3.9522    7.9883    6.5970 C.ar    1  UNL1        0.0829
     26 C           3.4456    6.8748    5.6948 C.3     1  UNL1       -0.0060
     27 C           4.6278    6.1325    5.0934 C.3     1  UNL1       -0.0351
     28 C           4.1211    5.0191    4.1912 C.3     1  UNL1       -0.0066
     29 N           5.2645    4.3012    3.6096 N.3     1  UNL1       -0.3300
     30 N           3.0471    8.8109    7.2634 N.ar    1  UNL1       -0.1345
     31 N           5.8248    6.3846    5.2977 N.ar    1  UNL1       -0.0654
     32 C          12.2133    6.1237    5.0862 C.ar    1  UNL1       -0.0182
     33 C           9.3572    2.7541    2.3562 C.ar    1  UNL1       -0.0370
     34 H           0.6475   -0.8637   -0.5751 H       1  UNL1        0.0230
     35 H           0.6475    0.8620   -0.3013 H       1  UNL1        0.0230
     36 H           0.6475   -0.2380    1.0563 H       1  UNL1        0.0230
     37 H           2.8808    0.0782   -0.9364 H       1  UNL1        0.0263
     38 H           2.8808   -1.0218    0.4213 H       1  UNL1        0.0263
     39 H           2.6741    0.8755    1.9585 H       1  UNL1        0.0280
     40 H           2.6741    1.9755    0.6008 H       1  UNL1        0.0280
     41 H           4.9075    1.1916   -0.0342 H       1  UNL1        0.0465
     42 H           4.9075    0.0917    1.3234 H       1  UNL1        0.0465
     43 H           4.2372    3.9938    2.2362 H       1  UNL1        0.0514
     44 H           4.2372    2.8939    3.5938 H       1  UNL1        0.0514
     45 H           1.7073    4.0496    3.4058 H       1  UNL1        0.0621
     46 H           0.0425    2.0633    1.7965 H       1  UNL1        0.0618
     47 H          -0.7569    4.3509    3.6499 H       1  UNL1        0.0618
     48 H          -3.2927    3.1846    2.7049 H       1  UNL1        0.0618
     49 H           2.9278    0.7408    0.7250 H       1  UNL1        0.0621
     50 H           6.3363    3.9774    3.3472 H       1  UNL1        0.1564
     51 H           8.2307    5.2691    4.3939 H       1  UNL1        0.0637
     52 H          10.9879    4.2547    3.5719 H       1  UNL1        0.0655
     53 H           8.2200    5.5702    5.7622 H       1  UNL1        0.0715
     54 H           8.2200    6.6702    4.4046 H       1  UNL1        0.0715
     55 H           7.9770    8.5649    5.9397 H       1  UNL1        0.0543
     56 H           7.9770    7.4649    7.2973 H       1  UNL1        0.0543
     57 H           5.7122    8.9488    7.3752 H       1  UNL1        0.0845
     58 H           2.8511    7.2942    4.9102 H       1  UNL1        0.0330
     59 H           2.8511    6.1942    6.2678 H       1  UNL1        0.0330
     60 H           5.2222    5.7132    5.8781 H       1  UNL1        0.0281
     61 H           5.2222    6.8132    4.5204 H       1  UNL1        0.0281
     62 H           3.5267    5.4384    3.4066 H       1  UNL1        0.0422
     63 H           3.5267    4.3384    4.7642 H       1  UNL1        0.0422
     64 H           5.8311    4.9500    3.0634 H       1  UNL1        0.1182
     65 H           4.9245    3.5540    3.0042 H       1  UNL1        0.1182
     66 H          13.0731    6.5672    5.4455 H       1  UNL1        0.0655
     67 H           9.4216    1.9539    1.7078 H       1  UNL1        0.0637
@<TRIPOS>BOND
     1     1     2    1
     2     2     3    1
     3     3     4    1
     4     4     5    1
     5     5     6    1
     6     6     7    1
     7     7     8   ar
     8     8     9   ar
     9     9    10   ar
    10    10    11   ar
    11    11    12   ar
    12     7    12   ar
    13     5    13   am
    14    13    14    2
    15    13    15   am
    16    15    16    1
    17    16    17   ar
    18    17    18   ar
    19    18    19   ar
    20    19    20    1
    21    20    21    1
    22    21    22    1
    23    22    23    1
    24    23    24   ar
    25    24    25   ar
    26    25    26    1
    27    26    27    1
    28    27    28    1
    29    28    29    1
    30    25    30   ar
    31    30    31   ar
    32    23    31   ar
    33    19    32   ar
    34    32    33   ar
    35    16    33   ar
    36     1    34    1
    37     1    35    1
    38     1    36    1
    39     2    37    1
    40     2    38    1
    41     3    39    1
    42     3    40    1
    43     4    41    1
    44     4    42    1
    45     6    43    1
    46     6    44    1
    47     8    45    1
    48     9    46    1
    49    10    47    1
    50    11    48    1
    51    12    49    1
    52    15    50    1
    53    17    51    1
    54    18    52    1
    55    21    53    1
    56    21    54    1
    57    22    55    1
    58    22    56    1
    59    24    57    1
    60    26    58    1
    61    26    59    1
    62    27    60    1
    63    27    61    1
    64    28    62    1
    65    28    63    1
    66    29    64    1
    67    29    65    1
    68    32    66    1
    69    33    67    1
