@<TRIPOS>MOLECULE
*****
 20 19 0 0 0
SMALL
GASTEIGER

@<TRIPOS>ATOM
      1 C           1.0245   -0.0405    0.0881 C.3     1  UNL1       -0.0653
      2 C           2.5445   -0.0405    0.0881 C.3     1  UNL1       -0.0559
      3 C           3.0512   -1.1030    1.0497 C.3     1  UNL1       -0.0533
      4 C           4.5712   -1.1030    1.0497 C.3     1  UNL1       -0.0533
      5 C           5.0778   -2.1656    2.0113 C.3     1  UNL1       -0.0559
      6 C           6.5978   -2.1656    2.0113 C.3     1  UNL1       -0.0653
      7 H           0.6678    0.7075   -0.5889 H       1  UNL1        0.0230
      8 H           0.6678    0.1717    1.0743 H       1  UNL1        0.0230
      9 H           0.6678   -1.0007   -0.2212 H       1  UNL1        0.0230
     10 H           2.9012    0.9197    0.3974 H       1  UNL1        0.0263
     11 H           2.9012   -0.2528   -0.8981 H       1  UNL1        0.0263
     12 H           2.6945   -2.0633    0.7404 H       1  UNL1        0.0265
     13 H           2.6945   -0.8908    2.0359 H       1  UNL1        0.0265
     14 H           4.9278   -0.1428    1.3590 H       1  UNL1        0.0265
     15 H           4.9278   -1.3153    0.0635 H       1  UNL1        0.0265
     16 H           4.7211   -3.1258    1.7021 H       1  UNL1        0.0263
     17 H           4.7211   -1.9533    2.9976 H       1  UNL1        0.0263
     18 H           6.9545   -2.3778    1.0251 H       1  UNL1        0.0230
     19 H           6.9545   -2.9135    2.6883 H       1  UNL1        0.0230
     20 H           6.9545   -1.2053    2.3206 H       1  UNL1        0.0230
@<TRIPOS>BOND
     1     1     2    1
     2     2     3    1
     3     3     4    1
     4     4     5    1
     5     5     6    1
     6     1     7    1
     7     1     8    1
     8     1     9    1
     9     2    10    1
    10     2    11    1
    11     3    12    1
    12     3    13    1
    13     4    14    1
    14     4    15    1
    15     5    16    1
    16     5    17    1
    17     6    18    1
    18     6    19    1
    19     6    20    1
