@<TRIPOS>MOLECULE
*****
 36 35 0 0 0
SMALL
GASTEIGER

@<TRIPOS>ATOM
      1 C           1.0648   -0.0755    0.0100 C.3     1  UNL1       -0.0653
      2 C           2.5848   -0.0755    0.0100 C.3     1  UNL1       -0.0559
      3 C           3.0914   -0.7808   -1.2376 C.3     1  UNL1       -0.0533
      4 C           4.6114   -0.7808   -1.2376 C.3     1  UNL1       -0.0531
      5 C           5.1181   -1.4860   -2.4851 C.3     1  UNL1       -0.0530
      6 C           6.6381   -1.4860   -2.4851 C.3     1  UNL1       -0.0516
      7 C           7.1447   -2.1912   -3.7327 C.3     1  UNL1       -0.0374
      8 C           8.6647   -2.1912   -3.7327 C.3     1  UNL1        0.0116
      9 N           9.1547   -2.8732   -4.9392 N.am    1  UNL1       -0.3153
     10 C          10.6000   -3.0054   -5.1730 C.2     1  UNL1        0.2128
     11 O          11.4259   -2.5300   -4.3321 O.2     1  UNL1       -0.2758
     12 C          11.1066   -3.7106   -6.4206 C.3     1  UNL1        0.0211
     13 C          12.6266   -3.7106   -6.4206 C.3     1  UNL1       -0.0570
     14 H           0.7081    0.4209    0.8882 H       1  UNL1        0.0230
     15 H           0.7081   -1.0843    0.0008 H       1  UNL1        0.0230
     16 H           0.7081    0.4368   -0.8591 H       1  UNL1        0.0230
     17 H           2.9414   -0.5879    0.8790 H       1  UNL1        0.0263
     18 H           2.9414    0.9332    0.0191 H       1  UNL1        0.0263
     19 H           2.7348   -0.2684   -2.1066 H       1  UNL1        0.0265
     20 H           2.7347   -1.7895   -1.2468 H       1  UNL1        0.0265
     21 H           4.9681   -1.2931   -0.3686 H       1  UNL1        0.0265
     22 H           4.9681    0.2280   -1.2284 H       1  UNL1        0.0265
     23 H           4.7614   -0.9736   -3.3542 H       1  UNL1        0.0265
     24 H           4.7614   -2.4947   -2.4943 H       1  UNL1        0.0265
     25 H           6.9947   -1.9983   -1.6161 H       1  UNL1        0.0266
     26 H           6.9947   -0.4772   -2.4760 H       1  UNL1        0.0266
     27 H           6.7881   -1.6789   -4.6017 H       1  UNL1        0.0280
     28 H           6.7881   -3.2000   -3.7419 H       1  UNL1        0.0280
     29 H           9.0214   -2.7035   -2.8637 H       1  UNL1        0.0462
     30 H           9.0214   -1.1824   -3.7235 H       1  UNL1        0.0462
     31 H           8.5150   -3.2414   -5.5906 H       1  UNL1        0.1487
     32 H          10.7500   -3.1983   -7.2896 H       1  UNL1        0.0356
     33 H          10.7500   -4.7194   -6.4298 H       1  UNL1        0.0356
     34 H          12.9833   -2.7018   -6.4114 H       1  UNL1        0.0234
     35 H          12.9833   -4.2070   -7.2988 H       1  UNL1        0.0234
     36 H          12.9833   -4.2229   -5.5516 H       1  UNL1        0.0234
@<TRIPOS>BOND
     1     1     2    1
     2     2     3    1
     3     3     4    1
     4     4     5    1
     5     5     6    1
     6     6     7    1
     7     7     8    1
     8     8     9    1
     9     9    10   am
    10    10    11    2
    11    10    12    1
    12    12    13    1
    13     1    14    1
    14     1    15    1
    15     1    16    1
    16     2    17    1
    17     2    18    1
    18     3    19    1
    19     3    20    1
    20     4    21    1
    21     4    22    1
    22     5    23    1
    23     5    24    1
    24     6    25    1
    25     6    26    1
    26     7    27    1
    27     7    28    1
    28     8    29    1
    29     8    30    1
    30     9    31    1
    31    12    32    1
    32    12    33    1
    33    13    34    1
    34    13    35    1
    35    13    36    1
