@<TRIPOS>MOLECULE
*****
 25 24 0 0 0
SMALL
GASTEIGER

@<TRIPOS>ATOM
      1 C           1.0351    0.0640   -0.0684 C.3     1  UNL1       -0.0652
      2 C           2.5551    0.0640   -0.0684 C.3     1  UNL1       -0.0538
      3 C           3.0617   -0.9403    0.9540 C.3     1  UNL1       -0.0297
      4 C           4.5817   -0.9403    0.9540 C.3     1  UNL1        0.0477
      5 O           5.0551   -1.8784    1.9090 O.3     1  UNL1       -0.3797
      6 C           6.4751   -1.8784    1.9090 C.3     1  UNL1        0.0497
      7 C           6.9817   -2.8827    2.9314 C.3     1  UNL1       -0.0062
      8 C           8.5017   -2.8827    2.9314 C.3     1  UNL1        0.0463
      9 O           8.9750   -3.8209    3.8865 O.3     1  UNL1       -0.3949
     10 H           0.6784    0.7709   -0.7881 H       1  UNL1        0.0230
     11 H           0.6784    0.3338    0.9037 H       1  UNL1        0.0230
     12 H           0.6784   -0.9127   -0.3208 H       1  UNL1        0.0230
     13 H           2.9117    1.0407    0.1840 H       1  UNL1        0.0263
     14 H           2.9117   -0.2058   -1.0405 H       1  UNL1        0.0263
     15 H           2.7051   -1.9170    0.7016 H       1  UNL1        0.0287
     16 H           2.7051   -0.6705    1.9260 H       1  UNL1        0.0287
     17 H           4.9384    0.0365    1.2063 H       1  UNL1        0.0560
     18 H           4.9384   -1.2101   -0.0181 H       1  UNL1        0.0560
     19 H           6.8317   -0.9017    2.1614 H       1  UNL1        0.0560
     20 H           6.8317   -2.1482    0.9370 H       1  UNL1        0.0560
     21 H           6.6250   -3.8594    2.6790 H       1  UNL1        0.0309
     22 H           6.6250   -2.6129    3.9034 H       1  UNL1        0.0309
     23 H           8.8584   -1.9060    3.1838 H       1  UNL1        0.0558
     24 H           8.8584   -3.1525    1.9593 H       1  UNL1        0.0558
     25 H           8.6517   -3.5763    4.7677 H       1  UNL1        0.2094
@<TRIPOS>BOND
     1     1     2    1
     2     2     3    1
     3     3     4    1
     4     4     5    1
     5     5     6    1
     6     6     7    1
     7     7     8    1
     8     8     9    1
     9     1    10    1
    10     1    11    1
    11     1    12    1
    12     2    13    1
    13     2    14    1
    14     3    15    1
    15     3    16    1
    16     4    17    1
    17     4    18    1
    18     6    19    1
    19     6    20    1
    20     7    21    1
    21     7    22    1
    22     8    23    1
    23     8    24    1
    24     9    25    1
