@<TRIPOS>MOLECULE
*****
 34 35 0 0 0
SMALL
GASTEIGER

@<TRIPOS>ATOM
      1 C           1.0622   -0.0410    0.0667 C.3     1  UNL1       -0.0038
      2 C           2.5822   -0.0410    0.0667 C.3     1  UNL1       -0.0364
      3 C           3.0889   -1.0738   -0.9268 C.3     1  UNL1       -0.0260
      4 C           2.5822   -0.7298   -2.3180 C.3     1  UNL1        0.0019
      5 N           1.1122   -0.7298   -2.3180 N.3     1  UNL1       -0.2997
      6 C           0.6222   -0.3971   -3.6634 C.3     1  UNL1        0.0115
      7 C          -0.8978   -0.3971   -3.6634 C.3     1  UNL1        0.0087
      8 N          -1.3878   -0.0644   -5.0088 N.3     1  UNL1       -0.3136
      9 C          -2.8578   -0.0644   -5.0088 C.3     1  UNL1        0.0087
     10 C           0.6222    0.2690   -1.3572 C.3     1  UNL1        0.0115
     11 C           4.6089   -1.0738   -0.9268 C.3     1  UNL1       -0.0364
     12 C           5.1156   -2.1066   -1.9203 C.3     1  UNL1       -0.0038
     13 N           0.5722    0.9578    1.0275 N.3     1  UNL1       -0.3160
     14 H           0.7056   -1.0102    0.3466 H       1  UNL1        0.0424
     15 H           0.7056    0.2012   -0.9126 H       1  UNL1        0.0424
     16 H           2.9389   -0.2831    1.0460 H       1  UNL1        0.0281
     17 H           2.9389    0.9282   -0.2133 H       1  UNL1        0.0281
     18 H           2.7322   -2.0430   -0.6469 H       1  UNL1        0.0314
     19 H           2.9389   -1.4568   -3.0173 H       1  UNL1        0.0429
     20 H           2.9389    0.2394   -2.5979 H       1  UNL1        0.0429
     21 H           0.9789   -1.1241   -4.3627 H       1  UNL1        0.0439
     22 H           0.9789    0.5721   -3.9433 H       1  UNL1        0.0439
     23 H          -1.2544    0.3299   -2.9640 H       1  UNL1        0.0437
     24 H          -1.2544   -1.3663   -3.3834 H       1  UNL1        0.0437
     25 H          -1.0478   -0.7575   -5.6755 H       1  UNL1        0.1220
     26 H          -3.4254   -0.9566   -5.1722 H       1  UNL1        0.0437
     27 H          -3.6829    0.4827   -5.4147 H       1  UNL1        0.0437
     28 H           0.3506   -0.0740   -0.3807 H       1  UNL1        0.0439
     29 H           1.1188    1.1383   -0.9793 H       1  UNL1        0.0439
     30 H           4.9656   -1.3159    0.0525 H       1  UNL1        0.0281
     31 H           4.9656   -0.1046   -1.2067 H       1  UNL1        0.0281
     32 H           5.4537   -3.0849   -1.6491 H       1  UNL1        0.0424
     33 H           5.6182   -2.2798   -2.8489 H       1  UNL1        0.0424
     34 H           0.2499    1.8904    0.7690 H       1  UNL1        0.1219
@<TRIPOS>BOND
     1     1     2    1
     2     2     3    1
     3     3     4    1
     4     4     5    1
     5     5     6    1
     6     6     7    1
     7     7     8    1
     8     8     9    1
     9     9    10    1
    10     5    10    1
    11     3    11    1
    12    11    12    1
    13    12    13    1
    14     1    13    1
    15     1    14    1
    16     1    15    1
    17     2    16    1
    18     2    17    1
    19     3    18    1
    20     4    19    1
    21     4    20    1
    22     6    21    1
    23     6    22    1
    24     7    23    1
    25     7    24    1
    26     8    25    1
    27     9    26    1
    28     9    27    1
    29    10    28    1
    30    10    29    1
    31    11    30    1
    32    11    31    1
    33    12    32    1
    34    12    33    1
    35    13    34    1
