@<TRIPOS>MOLECULE
*****
 13 12 0 0 0
SMALL
GASTEIGER

@<TRIPOS>ATOM
      1 C           0.9304    0.0600   -0.0394 C.3     1  UNL1       -0.0641
      2 C           2.4504    0.0600   -0.0394 C.3     1  UNL1       -0.0435
      3 C           2.9570    0.2234   -1.4631 C.3     1  UNL1       -0.0072
      4 N           4.4270    0.2234   -1.4631 N.3     1  UNL1       -0.3300
      5 H           0.5737   -0.0550    0.9628 H       1  UNL1        0.0230
      6 H           0.5737   -0.7505   -0.6401 H       1  UNL1        0.0230
      7 H           0.5737    0.9855   -0.4409 H       1  UNL1        0.0230
      8 H           2.8070   -0.8655    0.3621 H       1  UNL1        0.0275
      9 H           2.8070    0.8704    0.5613 H       1  UNL1        0.0275
     10 H           2.6004    1.1488   -1.8646 H       1  UNL1        0.0422
     11 H           2.6004   -0.5871   -2.0638 H       1  UNL1        0.0422
     12 H           4.7670    0.9959   -0.8905 H       1  UNL1        0.1182
     13 H           4.7670    0.3330   -2.4185 H       1  UNL1        0.1182
@<TRIPOS>BOND
     1     1     2    1
     2     2     3    1
     3     3     4    1
     4     1     5    1
     5     1     6    1
     6     1     7    1
     7     2     8    1
     8     2     9    1
     9     3    10    1
    10     3    11    1
    11     4    12    1
    12     4    13    1
