@<TRIPOS>MOLECULE
*****
 14 13 0 0 0
SMALL
GASTEIGER

@<TRIPOS>ATOM
      1 C           1.0541    0.0536   -0.0648 C.3     1  UNL1       -0.0653
      2 C           2.5741    0.0536   -0.0648 C.3     1  UNL1       -0.0562
      3 C           3.0807    0.9123   -1.2121 C.3     1  UNL1       -0.0562
      4 C           4.6007    0.9123   -1.2121 C.3     1  UNL1       -0.0653
      5 H           0.6974   -0.5509    0.7428 H       1  UNL1        0.0230
      6 H           0.6974   -0.3436   -0.9922 H       1  UNL1        0.0230
      7 H           0.6974    1.0553    0.0548 H       1  UNL1        0.0230
      8 H           2.9307   -0.9481   -0.1845 H       1  UNL1        0.0263
      9 H           2.9307    0.4508    0.8625 H       1  UNL1        0.0263
     10 H           2.7241    1.9140   -1.0925 H       1  UNL1        0.0263
     11 H           2.7241    0.5151   -2.1395 H       1  UNL1        0.0263
     12 H           4.9574    1.3095   -0.2848 H       1  UNL1        0.0230
     13 H           4.9574    1.5168   -2.0198 H       1  UNL1        0.0230
     14 H           4.9574   -0.0894   -1.3318 H       1  UNL1        0.0230
@<TRIPOS>BOND
     1     1     2    1
     2     2     3    1
     3     3     4    1
     4     1     5    1
     5     1     6    1
     6     1     7    1
     7     2     8    1
     8     2     9    1
     9     3    10    1
    10     3    11    1
    11     4    12    1
    12     4    13    1
    13     4    14    1
