@<TRIPOS>MOLECULE
*****
 47 47 0 0 0
SMALL
GASTEIGER

@<TRIPOS>ATOM
      1 C           1.0923    0.0364   -0.0129 C.3     1  UNL1       -0.0653
      2 C           2.6123    0.0364   -0.0129 C.3     1  UNL1       -0.0559
      3 C           3.1189   -0.4410    1.3383 C.3     1  UNL1       -0.0533
      4 C           4.6389   -0.4410    1.3383 C.3     1  UNL1       -0.0530
      5 C           5.1456   -0.9184    2.6895 C.3     1  UNL1       -0.0519
      6 C           6.6656   -0.9184    2.6895 C.3     1  UNL1       -0.0402
      7 C           7.1722   -1.3958    4.0407 C.3     1  UNL1       -0.0010
      8 N           8.6422   -1.3958    4.0407 N.3     1  UNL1       -0.2994
      9 C           9.1322   -1.8575    5.3475 C.3     1  UNL1        0.0148
     10 C          10.6522   -1.8575    5.3475 C.3     1  UNL1        0.0275
     11 N          11.1422   -2.3191    6.6543 N.am    1  UNL1       -0.2990
     12 C          10.1870   -2.6913    7.7078 C.2     1  UNL1        0.2160
     13 O          10.6106   -3.0905    8.8375 O.2     1  UNL1       -0.2756
     14 C           8.6926   -2.5988    7.4459 C.3     1  UNL1        0.0305
     15 C           7.9326   -3.0373    8.6871 C.3     1  UNL1        0.0110
     16 C           6.4382   -2.9448    8.4252 C.2     1  UNL1        0.1208
     17 O           5.6123   -3.2666    9.3360 O.2     1  UNL1       -0.3010
     18 C          12.5875   -2.4086    6.9075 C.3     1  UNL1        0.0275
     19 C           9.1322   -0.0332    3.7872 C.3     1  UNL1        0.0148
     20 H           0.7356    0.3724   -0.9641 H       1  UNL1        0.0230
     21 H           0.7356    0.6921    0.7537 H       1  UNL1        0.0230
     22 H           0.7356   -0.9554    0.1716 H       1  UNL1        0.0230
     23 H           2.9689    1.0281   -0.1975 H       1  UNL1        0.0263
     24 H           2.9689   -0.6194   -0.7796 H       1  UNL1        0.0263
     25 H           2.7622   -1.4328    1.5228 H       1  UNL1        0.0265
     26 H           2.7622    0.2147    2.1049 H       1  UNL1        0.0265
     27 H           4.9956    0.5508    1.1537 H       1  UNL1        0.0265
     28 H           4.9956   -1.0967    0.5717 H       1  UNL1        0.0265
     29 H           4.7889   -1.9102    2.8741 H       1  UNL1        0.0266
     30 H           4.7889   -0.2627    3.4561 H       1  UNL1        0.0266
     31 H           7.0222    0.0734    2.5049 H       1  UNL1        0.0278
     32 H           7.0222   -1.5741    1.9229 H       1  UNL1        0.0278
     33 H           6.8156   -2.3876    4.2253 H       1  UNL1        0.0426
     34 H           6.8156   -0.7401    4.8073 H       1  UNL1        0.0426
     35 H           8.7756   -2.8492    5.5321 H       1  UNL1        0.0442
     36 H           8.7756   -1.2017    6.1141 H       1  UNL1        0.0442
     37 H          11.0089   -0.8657    5.1629 H       1  UNL1        0.0477
     38 H          11.0089   -2.5132    4.5809 H       1  UNL1        0.0477
     39 H           8.4341   -3.2357    6.6258 H       1  UNL1        0.0362
     40 H           8.4341   -1.5882    7.2079 H       1  UNL1        0.0362
     41 H           8.1911   -2.4005    9.5071 H       1  UNL1        0.0343
     42 H           8.1911   -4.0480    8.9251 H       1  UNL1        0.0343
     43 H           6.0942   -2.6207    7.5078 H       1  UNL1        0.1026
     44 H          13.1844   -3.2384    6.5912 H       1  UNL1        0.0477
     45 H          13.3406   -2.2283    7.6459 H       1  UNL1        0.0477
     46 H           9.4424    0.2081    2.7920 H       1  UNL1        0.0442
     47 H           8.6317    0.9034    3.9173 H       1  UNL1        0.0442
@<TRIPOS>BOND
     1     1     2    1
     2     2     3    1
     3     3     4    1
     4     4     5    1
     5     5     6    1
     6     6     7    1
     7     7     8    1
     8     8     9    1
     9     9    10    1
    10    10    11    1
    11    11    12   am
    12    12    13    2
    13    12    14    1
    14    14    15    1
    15    15    16    1
    16    16    17    2
    17    11    18    1
    18    18    19    1
    19     8    19    1
    20     1    20    1
    21     1    21    1
    22     1    22    1
    23     2    23    1
    24     2    24    1
    25     3    25    1
    26     3    26    1
    27     4    27    1
    28     4    28    1
    29     5    29    1
    30     5    30    1
    31     6    31    1
    32     6    32    1
    33     7    33    1
    34     7    34    1
    35     9    35    1
    36     9    36    1
    37    10    37    1
    38    10    38    1
    39    14    39    1
    40    14    40    1
    41    15    41    1
    42    15    42    1
    43    16    43    1
    44    18    44    1
    45    18    45    1
    46    19    46    1
    47    19    47    1
