@<TRIPOS>MOLECULE
*****
 40 39 0 0 0
SMALL
GASTEIGER

@<TRIPOS>ATOM
      1 C           1.0834   -0.0551    0.0011 C.3     1  UNL1       -0.0570
      2 C           2.6034   -0.0551    0.0011 C.3     1  UNL1        0.0211
      3 C           3.1101    1.3704   -0.1459 C.2     1  UNL1        0.2128
      4 O           2.2842    2.3313   -0.2450 O.2     1  UNL1       -0.2758
      5 N           4.5553    1.6376   -0.1735 N.am    1  UNL1       -0.3131
      6 C           5.0453    3.0162   -0.3156 C.3     1  UNL1        0.0350
      7 C           6.5653    3.0162   -0.3156 C.3     1  UNL1        0.0632
      8 O           7.0387    4.3479   -0.4529 O.3     1  UNL1       -0.3760
      9 C           8.4587    4.3479   -0.4529 C.3     1  UNL1        0.0711
     10 C           8.9653    5.7735   -0.5999 C.3     1  UNL1        0.0711
     11 O          10.3853    5.7735   -0.5999 O.3     1  UNL1       -0.3752
     12 C          10.8586    7.1052   -0.7372 C.3     1  UNL1        0.0711
     13 C          12.3786    7.1052   -0.7372 C.3     1  UNL1        0.0711
     14 O          12.8520    8.4369   -0.8745 O.3     1  UNL1       -0.3752
     15 C          14.2720    8.4369   -0.8745 C.3     1  UNL1        0.0708
     16 C          14.7786    9.8624   -1.0215 C.3     1  UNL1        0.0676
     17 O          16.1986    9.8624   -1.0215 O.3     1  UNL1       -0.3927
     18 H           0.7268   -1.0586    0.1045 H       1  UNL1        0.0234
     19 H           0.7268    0.3570   -0.9197 H       1  UNL1        0.0234
     20 H           0.7268    0.5362    0.8184 H       1  UNL1        0.0234
     21 H           2.9601   -0.6465   -0.8162 H       1  UNL1        0.0356
     22 H           2.9601   -0.4673    0.9218 H       1  UNL1        0.0356
     23 H           5.1951    0.8932   -0.0967 H       1  UNL1        0.1488
     24 H           4.6887    3.6076    0.5017 H       1  UNL1        0.0484
     25 H           4.6887    3.4284   -1.2364 H       1  UNL1        0.0484
     26 H           6.9220    2.4249   -1.1329 H       1  UNL1        0.0575
     27 H           6.9220    2.6041    0.6052 H       1  UNL1        0.0575
     28 H           8.8153    3.7566   -1.2702 H       1  UNL1        0.0583
     29 H           8.8153    3.9358    0.4678 H       1  UNL1        0.0583
     30 H           8.6087    6.3648    0.2174 H       1  UNL1        0.0583
     31 H           8.6087    6.1856   -1.5207 H       1  UNL1        0.0583
     32 H          10.5020    7.6965    0.0801 H       1  UNL1        0.0583
     33 H          10.5020    7.5173   -1.6580 H       1  UNL1        0.0583
     34 H          12.7353    6.5138   -1.5545 H       1  UNL1        0.0583
     35 H          12.7353    6.6930    0.1835 H       1  UNL1        0.0583
     36 H          14.6286    7.8456   -1.6919 H       1  UNL1        0.0583
     37 H          14.6286    8.0248    0.0462 H       1  UNL1        0.0583
     38 H          14.4220   10.4538   -0.2042 H       1  UNL1        0.0580
     39 H          14.4220   10.2746   -1.9423 H       1  UNL1        0.0580
     40 H          16.5220    9.4888   -0.1868 H       1  UNL1        0.2095
@<TRIPOS>BOND
     1     1     2    1
     2     2     3    1
     3     3     4    2
     4     3     5   am
     5     5     6    1
     6     6     7    1
     7     7     8    1
     8     8     9    1
     9     9    10    1
    10    10    11    1
    11    11    12    1
    12    12    13    1
    13    13    14    1
    14    14    15    1
    15    15    16    1
    16    16    17    1
    17     1    18    1
    18     1    19    1
    19     1    20    1
    20     2    21    1
    21     2    22    1
    22     5    23    1
    23     6    24    1
    24     6    25    1
    25     7    26    1
    26     7    27    1
    27     9    28    1
    28     9    29    1
    29    10    30    1
    30    10    31    1
    31    12    32    1
    32    12    33    1
    33    13    34    1
    34    13    35    1
    35    15    36    1
    36    15    37    1
    37    16    38    1
    38    16    39    1
    39    17    40    1
