@<TRIPOS>MOLECULE
*****
 35 34 0 0 0
SMALL
GASTEIGER

@<TRIPOS>ATOM
      1 C           1.0411    0.0656   -0.0633 C.3     1  UNL1       -0.0653
      2 C           2.5611    0.0656   -0.0633 C.3     1  UNL1       -0.0555
      3 C           3.0677    1.4836    0.1438 C.3     1  UNL1       -0.0450
      4 C           4.5877    1.4836    0.1438 C.3     1  UNL1        0.0241
      5 C           5.0944    2.9017    0.3510 C.2     1  UNL1        0.2154
      6 O           4.2685    3.8575    0.4906 O.2     1  UNL1       -0.2756
      7 N           6.5397    3.1675    0.3898 N.am    1  UNL1       -0.3033
      8 C           7.4949    2.0619    0.2283 C.3     1  UNL1        0.0032
      9 C           7.0296    4.5388    0.5901 C.3     1  UNL1        0.0271
     10 C           8.5496    4.5388    0.5901 C.3     1  UNL1        0.0141
     11 N           9.0396    5.9102    0.7904 N.3     1  UNL1       -0.3069
     12 C           8.5496    6.4224    2.0782 C.3     1  UNL1       -0.0130
     13 C          10.5096    5.9102    0.7904 C.3     1  UNL1       -0.0130
     14 H           0.6844   -0.9326   -0.2091 H       1  UNL1        0.0230
     15 H           0.6844    0.6910   -0.8549 H       1  UNL1        0.0230
     16 H           0.6844    0.4384    0.8741 H       1  UNL1        0.0230
     17 H           2.9177   -0.3072   -1.0007 H       1  UNL1        0.0263
     18 H           2.9177   -0.5598    0.7283 H       1  UNL1        0.0263
     19 H           2.7111    1.8565    1.0812 H       1  UNL1        0.0270
     20 H           2.7111    2.1090   -0.6477 H       1  UNL1        0.0270
     21 H           4.9444    1.1108   -0.7936 H       1  UNL1        0.0358
     22 H           4.9444    0.8583    0.9354 H       1  UNL1        0.0358
     23 H           6.9599    1.1450    0.0944 H       1  UNL1        0.0428
     24 H           8.1101    1.9917    1.1010 H       1  UNL1        0.0428
     25 H           8.1101    2.2442   -0.6280 H       1  UNL1        0.0428
     26 H           6.6730    4.9117    1.5275 H       1  UNL1        0.0477
     27 H           6.6730    5.1642   -0.2015 H       1  UNL1        0.0477
     28 H           8.9063    4.1660   -0.3473 H       1  UNL1        0.0442
     29 H           8.9063    3.9135    1.3817 H       1  UNL1        0.0442
     30 H           7.4796    6.4224    2.0782 H       1  UNL1        0.0391
     31 H           8.9063    7.4206    2.2241 H       1  UNL1        0.0391
     32 H           8.9063    5.7970    2.8698 H       1  UNL1        0.0391
     33 H          10.8663    5.5374   -0.1470 H       1  UNL1        0.0391
     34 H          10.8663    5.2848    1.5820 H       1  UNL1        0.0391
     35 H          10.8663    6.9084    0.9362 H       1  UNL1        0.0391
@<TRIPOS>BOND
     1     1     2    1
     2     2     3    1
     3     3     4    1
     4     4     5    1
     5     5     6    2
     6     5     7   am
     7     7     8    1
     8     7     9    1
     9     9    10    1
    10    10    11    1
    11    11    12    1
    12    11    13    1
    13     1    14    1
    14     1    15    1
    15     1    16    1
    16     2    17    1
    17     2    18    1
    18     3    19    1
    19     3    20    1
    20     4    21    1
    21     4    22    1
    22     8    23    1
    23     8    24    1
    24     8    25    1
    25     9    26    1
    26     9    27    1
    27    10    28    1
    28    10    29    1
    29    12    30    1
    30    12    31    1
    31    12    32    1
    32    13    33    1
    33    13    34    1
    34    13    35    1
