@<TRIPOS>MOLECULE
*****
 42 41 0 0 0
SMALL
GASTEIGER

@<TRIPOS>ATOM
      1 C           0.9058    0.0337   -0.0010 C.3     1  UNL1       -0.0632
      2 C           2.4258    0.0337   -0.0010 C.3     1  UNL1       -0.0323
      3 C           2.9325    0.7177   -1.2603 C.3     1  UNL1        0.0475
      4 O           4.3525    0.7177   -1.2603 O.3     1  UNL1       -0.3775
      5 C           4.8258    1.3567   -2.4367 C.3     1  UNL1        0.0710
      6 C           6.3458    1.3567   -2.4367 C.3     1  UNL1        0.0711
      7 O           6.8192    1.9957   -3.6131 O.3     1  UNL1       -0.3752
      8 C           8.2392    1.9957   -3.6131 C.3     1  UNL1        0.0711
      9 C           8.7458    2.6797   -4.8724 C.3     1  UNL1        0.0710
     10 O          10.1658    2.6797   -4.8724 O.3     1  UNL1       -0.3774
     11 C          10.6391    3.3188   -6.0489 C.3     1  UNL1        0.0492
     12 C          12.1591    3.3188   -6.0489 C.3     1  UNL1       -0.0138
     13 C          12.6658    4.0028   -7.3082 C.3     1  UNL1        0.0137
     14 N          14.1358    4.0028   -7.3082 N.am    1  UNL1       -0.3155
     15 C          14.8708    4.6104   -8.4268 C.2     1  UNL1        0.2099
     16 C          14.1108    5.2387   -9.5836 C.3     1  UNL1        0.0121
     17 O          16.1417    4.6104   -8.4268 O.2     1  UNL1       -0.2761
     18 H           0.5492   -0.4479    0.8855 H       1  UNL1        0.0230
     19 H           0.5492   -0.4933   -0.8612 H       1  UNL1        0.0230
     20 H           0.5492    1.0421   -0.0272 H       1  UNL1        0.0230
     21 H           2.7825   -0.9748    0.0253 H       1  UNL1        0.0285
     22 H           2.7825    0.5606    0.8593 H       1  UNL1        0.0285
     23 H           2.5758    1.7261   -1.2865 H       1  UNL1        0.0560
     24 H           2.5758    0.1907   -2.1205 H       1  UNL1        0.0560
     25 H           4.4692    2.3652   -2.4629 H       1  UNL1        0.0583
     26 H           4.4692    0.8298   -3.2969 H       1  UNL1        0.0583
     27 H           6.7025    0.3482   -2.4105 H       1  UNL1        0.0583
     28 H           6.7025    1.8836   -1.5765 H       1  UNL1        0.0583
     29 H           8.5958    0.9873   -3.5869 H       1  UNL1        0.0583
     30 H           8.5958    2.5227   -2.7529 H       1  UNL1        0.0583
     31 H           8.3892    3.6882   -4.8987 H       1  UNL1        0.0583
     32 H           8.3891    2.1528   -5.7327 H       1  UNL1        0.0583
     33 H          10.2825    4.3272   -6.0751 H       1  UNL1        0.0560
     34 H          10.2825    2.7918   -6.9091 H       1  UNL1        0.0560
     35 H          12.5158    2.3103   -6.0226 H       1  UNL1        0.0302
     36 H          12.5158    3.8457   -5.1886 H       1  UNL1        0.0302
     37 H          12.3091    5.0112   -7.3344 H       1  UNL1        0.0463
     38 H          12.3091    3.4758   -8.1684 H       1  UNL1        0.0463
     39 H          14.6281    3.5958   -6.5590 H       1  UNL1        0.1487
     40 H          13.0588    5.1454   -9.4118 H       1  UNL1        0.0322
     41 H          14.3693    4.7388  -10.4936 H       1  UNL1        0.0322
     42 H          14.3693    6.2743   -9.6596 H       1  UNL1        0.0322
@<TRIPOS>BOND
     1     1     2    1
     2     2     3    1
     3     3     4    1
     4     4     5    1
     5     5     6    1
     6     6     7    1
     7     7     8    1
     8     8     9    1
     9     9    10    1
    10    10    11    1
    11    11    12    1
    12    12    13    1
    13    13    14    1
    14    14    15   am
    15    15    16    1
    16    15    17    2
    17     1    18    1
    18     1    19    1
    19     1    20    1
    20     2    21    1
    21     2    22    1
    22     3    23    1
    23     3    24    1
    24     5    25    1
    25     5    26    1
    26     6    27    1
    27     6    28    1
    28     8    29    1
    29     8    30    1
    30     9    31    1
    31     9    32    1
    32    11    33    1
    33    11    34    1
    34    12    35    1
    35    12    36    1
    36    13    37    1
    37    13    38    1
    38    14    39    1
    39    16    40    1
    40    16    41    1
    41    16    42    1
