@<TRIPOS>MOLECULE
*****
 32 31 0 0 0
SMALL
GASTEIGER

@<TRIPOS>ATOM
      1 C           0.9533   -0.0700   -0.0540 C.3     1  UNL1        0.0121
      2 C           2.4733   -0.0700   -0.0540 C.2     1  UNL1        0.2099
      3 O           3.1088    0.6927   -0.8476 O.2     1  UNL1       -0.2761
      4 N           3.2083   -0.9522    0.8638 N.am    1  UNL1       -0.3155
      5 C           4.6783   -0.9522    0.8638 C.3     1  UNL1        0.0116
      6 C           5.1850   -1.9453    1.8970 C.3     1  UNL1       -0.0373
      7 C           6.7050   -1.9453    1.8970 C.3     1  UNL1       -0.0502
      8 C           7.2117   -2.9383    2.9302 C.3     1  UNL1       -0.0373
      9 C           8.7317   -2.9383    2.9302 C.3     1  UNL1        0.0117
     10 N           9.2217   -3.8987    3.9295 N.am    1  UNL1       -0.3134
     11 C          10.6669   -4.0848    4.1231 C.2     1  UNL1        0.2385
     12 O          11.4928   -3.4155    3.4267 O.2     1  UNL1       -0.2733
     13 C          11.1736   -5.0779    5.1563 C.3     1  UNL1        0.1202
     14 O          12.5936   -5.0779    5.1563 O.3     1  UNL1       -0.3858
     15 H           0.5967    0.6290   -0.7814 H       1  UNL1        0.0322
     16 H           0.5967    0.2103    0.9150 H       1  UNL1        0.0322
     17 H           0.5967   -1.0494   -0.2958 H       1  UNL1        0.0322
     18 H           2.7161   -1.5430    1.4785 H       1  UNL1        0.1487
     19 H           5.0350    0.0272    1.1055 H       1  UNL1        0.0462
     20 H           5.0350   -1.2325   -0.1053 H       1  UNL1        0.0462
     21 H           4.8283   -2.9247    1.6553 H       1  UNL1        0.0280
     22 H           4.8283   -1.6649    2.8661 H       1  UNL1        0.0280
     23 H           7.0617   -0.9658    2.1388 H       1  UNL1        0.0266
     24 H           7.0617   -2.2256    0.9280 H       1  UNL1        0.0266
     25 H           6.8550   -3.9177    2.6885 H       1  UNL1        0.0280
     26 H           6.8550   -2.6580    3.8993 H       1  UNL1        0.0280
     27 H           9.0883   -1.9589    3.1720 H       1  UNL1        0.0462
     28 H           9.0883   -3.2187    1.9612 H       1  UNL1        0.0462
     29 H           8.5819   -4.4172    4.4690 H       1  UNL1        0.1487
     30 H          10.8169   -6.0573    4.9146 H       1  UNL1        0.0654
     31 H          10.8169   -4.7975    6.1254 H       1  UNL1        0.0654
     32 H          12.9169   -5.3321    4.2778 H       1  UNL1        0.2100
@<TRIPOS>BOND
     1     1     2    1
     2     2     3    2
     3     2     4   am
     4     4     5    1
     5     5     6    1
     6     6     7    1
     7     7     8    1
     8     8     9    1
     9     9    10    1
    10    10    11   am
    11    11    12    2
    12    11    13    1
    13    13    14    1
    14     1    15    1
    15     1    16    1
    16     1    17    1
    17     4    18    1
    18     5    19    1
    19     5    20    1
    20     6    21    1
    21     6    22    1
    22     7    23    1
    23     7    24    1
    24     8    25    1
    25     8    26    1
    26     9    27    1
    27     9    28    1
    28    10    29    1
    29    13    30    1
    30    13    31    1
    31    14    32    1
