@<TRIPOS>MOLECULE
*****
 34 35 0 0 0
SMALL
GASTEIGER

@<TRIPOS>ATOM
      1 C           1.0852   -0.0232    0.0469 C.3     1  UNL1       -0.0524
      2 C           2.6052   -0.0232    0.0469 C.3     1  UNL1       -0.0038
      3 N           3.0952   -0.3144   -1.3081 N.3     1  UNL1       -0.2996
      4 C           4.5652   -0.3144   -1.3081 C.3     1  UNL1        0.0147
      5 C           5.0718   -0.6155   -2.7092 C.3     1  UNL1        0.0250
      6 N           6.5418   -0.6155   -2.7092 N.pl3   1  UNL1       -0.3275
      7 C           7.2768   -0.3480   -1.4645 C.ar    1  UNL1        0.0298
      8 C           6.5567   -0.0860   -0.2451 C.ar    1  UNL1       -0.0400
      9 C           7.2768    0.1760    0.9743 C.ar    1  UNL1       -0.0498
     10 C           6.5567    0.4381    2.1937 C.ar    1  UNL1        0.0143
     11 C           5.0367    0.4381    2.1937 C.2     1  UNL1        0.1502
     12 O           4.4013    0.2068    1.1177 O.2     1  UNL1       -0.2957
     13 C           7.2768    0.7001    3.4131 C.ar    1  UNL1       -0.0498
     14 C           8.7170   -0.3480   -1.4645 C.ar    1  UNL1       -0.0400
     15 C           7.2768   -0.8829   -3.9538 C.3     1  UNL1        0.0250
     16 C           2.6052    0.7135   -2.2377 C.3     1  UNL1        0.0147
     17 H           0.7285    0.1887    1.0332 H       1  UNL1        0.0242
     18 H           0.7285   -0.9834   -0.2627 H       1  UNL1        0.0242
     19 H           0.7285    0.7249   -0.6298 H       1  UNL1        0.0242
     20 H           2.9619   -0.7714    0.7236 H       1  UNL1        0.0424
     21 H           2.9619    0.9369    0.3565 H       1  UNL1        0.0424
     22 H           4.9219   -1.0626   -0.6314 H       1  UNL1        0.0442
     23 H           4.9219    0.6457   -0.9985 H       1  UNL1        0.0442
     24 H           4.7152    0.1327   -3.3858 H       1  UNL1        0.0476
     25 H           4.7152   -1.5756   -3.0188 H       1  UNL1        0.0476
     26 H           5.5247   -0.0860   -0.2451 H       1  UNL1        0.0636
     27 H           8.3088    0.1760    0.9743 H       1  UNL1        0.0625
     28 H           4.5207    0.6258    3.0675 H       1  UNL1        0.1081
     29 H           7.4017    0.9153    4.4147 H       1  UNL1        0.0625
     30 H           9.5418   -0.4783   -2.0710 H       1  UNL1        0.0636
     31 H           7.4552   -1.8706   -4.3246 H       1  UNL1        0.0476
     32 H           8.1276   -0.5809   -4.5282 H       1  UNL1        0.0476
     33 H           1.7481    0.4791   -2.8338 H       1  UNL1        0.0442
     34 H           2.2598    1.7052   -2.0327 H       1  UNL1        0.0442
@<TRIPOS>BOND
     1     1     2    1
     2     2     3    1
     3     3     4    1
     4     4     5    1
     5     5     6    1
     6     6     7    1
     7     7     8   ar
     8     8     9   ar
     9     9    10   ar
    10    10    11    1
    11    11    12    2
    12    10    13   ar
    13    13    14   ar
    14     7    14   ar
    15     6    15    1
    16    15    16    1
    17     3    16    1
    18     1    17    1
    19     1    18    1
    20     1    19    1
    21     2    20    1
    22     2    21    1
    23     4    22    1
    24     4    23    1
    25     5    24    1
    26     5    25    1
    27     8    26    1
    28     9    27    1
    29    11    28    1
    30    13    29    1
    31    14    30    1
    32    15    31    1
    33    15    32    1
    34    16    33    1
    35    16    34    1
