@<TRIPOS>MOLECULE
*****
 32 32 0 0 0
SMALL
GASTEIGER

@<TRIPOS>ATOM
      1 C           1.0635    0.0755    0.0163 C.3     1  UNL1       -0.0416
      2 C           2.5835    0.0755    0.0163 C.3     1  UNL1        0.0449
      3 O           3.0568   -0.6311   -1.1209 O.3     1  UNL1       -0.3778
      4 C           4.4768   -0.6311   -1.1209 C.3     1  UNL1        0.0710
      5 C           4.9835   -1.3873   -2.3381 C.3     1  UNL1        0.0711
      6 O           6.4035   -1.3873   -2.3381 O.3     1  UNL1       -0.3757
      7 C           6.8768   -2.0939   -3.4753 C.3     1  UNL1        0.0673
      8 C           8.3968   -2.0939   -3.4753 C.3     1  UNL1        0.0665
      9 N           8.8868   -2.8253   -4.6525 N.ar    1  UNL1       -0.2488
     10 C          10.2562   -2.9596   -4.8687 C.ar    1  UNL1        0.0580
     11 C          10.7363   -3.6762   -6.0220 C.ar    1  UNL1        0.1666
     12 C           9.7485   -4.2859   -7.0034 C.2     1  UNL1        0.2632
     13 N          10.2385   -5.0174   -8.1806 N.am    1  UNL1       -0.3240
     14 O           8.4990   -4.1634   -6.8061 O.2     1  UNL1       -0.2686
     15 N          12.1056   -3.8105   -6.2382 N.ar    1  UNL1       -0.1248
     16 N           8.0125   -3.3650   -5.5211 N.ar    1  UNL1       -0.0649
     17 H           0.7069    0.6079    0.8732 H       1  UNL1        0.0252
     18 H           0.7069   -0.9328    0.0489 H       1  UNL1        0.0252
     19 H           0.7069    0.5514   -0.8732 H       1  UNL1        0.0252
     20 H           2.9402   -0.4004    0.9058 H       1  UNL1        0.0557
     21 H           2.9402    1.0838   -0.0163 H       1  UNL1        0.0557
     22 H           4.8335   -1.1069   -0.2314 H       1  UNL1        0.0583
     23 H           4.8335    0.3772   -1.1535 H       1  UNL1        0.0583
     24 H           4.6268   -0.9115   -3.2276 H       1  UNL1        0.0583
     25 H           4.6268   -2.3956   -2.3055 H       1  UNL1        0.0583
     26 H           6.5202   -1.6180   -4.3648 H       1  UNL1        0.0578
     27 H           6.5202   -3.1022   -3.4427 H       1  UNL1        0.0578
     28 H           8.7535   -2.5698   -2.5858 H       1  UNL1        0.0532
     29 H           8.7535   -1.0856   -3.5079 H       1  UNL1        0.0532
     30 H          10.9268   -2.5457   -4.2024 H       1  UNL1        0.0850
     31 H          11.2064   -5.1123   -8.3334 H       1  UNL1        0.1453
     32 H           9.5988   -5.4123   -8.8162 H       1  UNL1        0.1453
@<TRIPOS>BOND
     1     1     2    1
     2     2     3    1
     3     3     4    1
     4     4     5    1
     5     5     6    1
     6     6     7    1
     7     7     8    1
     8     8     9    1
     9     9    10   ar
    10    10    11   ar
    11    11    12    1
    12    12    13   am
    13    12    14    2
    14    11    15   ar
    15    15    16   ar
    16     9    16   ar
    17     1    17    1
    18     1    18    1
    19     1    19    1
    20     2    20    1
    21     2    21    1
    22     4    22    1
    23     4    23    1
    24     5    24    1
    25     5    25    1
    26     7    26    1
    27     7    27    1
    28     8    28    1
    29     8    29    1
    30    10    30    1
    31    13    31    1
    32    13    32    1
