@<TRIPOS>MOLECULE
*****
 31 30 0 0 0
SMALL
GASTEIGER

@<TRIPOS>ATOM
      1 C           0.9611    0.0606   -0.0694 C.3     1  UNL1       -0.0416
      2 C           2.4811    0.0606   -0.0694 C.3     1  UNL1        0.0449
      3 O           2.9544    0.7583    1.0732 O.3     1  UNL1       -0.3778
      4 C           4.3744    0.7583    1.0732 C.3     1  UNL1        0.0710
      5 C           4.8811    1.5052    2.2963 C.3     1  UNL1        0.0711
      6 O           6.3011    1.5052    2.2963 O.3     1  UNL1       -0.3760
      7 C           6.7744    2.2029    3.4389 C.3     1  UNL1        0.0633
      8 C           8.2944    2.2029    3.4389 C.3     1  UNL1        0.0351
      9 N           8.7844    2.9251    4.6218 N.am    1  UNL1       -0.3121
     10 C          10.2296    3.0651    4.8510 C.2     1  UNL1        0.2268
     11 O          11.0555    2.5617    4.0266 O.2     1  UNL1       -0.2744
     12 C          10.7363    3.8120    6.0741 C.3     1  UNL1        0.0707
     13 N          12.2063    3.8120    6.0741 N.3     1  UNL1       -0.3225
     14 H           0.6044   -0.4651   -0.9304 H       1  UNL1        0.0252
     15 H           0.6044    1.0691   -0.0942 H       1  UNL1        0.0252
     16 H           0.6044   -0.4222    0.8164 H       1  UNL1        0.0252
     17 H           2.8377    0.5434   -0.9552 H       1  UNL1        0.0557
     18 H           2.8377   -0.9479   -0.0446 H       1  UNL1        0.0557
     19 H           4.7311    1.2411    0.1875 H       1  UNL1        0.0583
     20 H           4.7311   -0.2502    1.0981 H       1  UNL1        0.0583
     21 H           4.5244    1.0224    3.1821 H       1  UNL1        0.0583
     22 H           4.5244    2.5137    2.2715 H       1  UNL1        0.0583
     23 H           6.4177    1.7201    4.3247 H       1  UNL1        0.0575
     24 H           6.4177    3.2114    3.4141 H       1  UNL1        0.0575
     25 H           8.6511    2.6856    2.5531 H       1  UNL1        0.0484
     26 H           8.6511    1.1944    3.4637 H       1  UNL1        0.0484
     27 H           8.1446    3.3151    5.2604 H       1  UNL1        0.1488
     28 H          10.3796    3.3292    6.9599 H       1  UNL1        0.0518
     29 H          10.3796    4.8205    6.0493 H       1  UNL1        0.0518
     30 H          12.5463    2.8506    6.0978 H       1  UNL1        0.1186
     31 H          12.5463    4.3131    6.8949 H       1  UNL1        0.1186
@<TRIPOS>BOND
     1     1     2    1
     2     2     3    1
     3     3     4    1
     4     4     5    1
     5     5     6    1
     6     6     7    1
     7     7     8    1
     8     8     9    1
     9     9    10   am
    10    10    11    2
    11    10    12    1
    12    12    13    1
    13     1    14    1
    14     1    15    1
    15     1    16    1
    16     2    17    1
    17     2    18    1
    18     4    19    1
    19     4    20    1
    20     5    21    1
    21     5    22    1
    22     7    23    1
    23     7    24    1
    24     8    25    1
    25     8    26    1
    26     9    27    1
    27    12    28    1
    28    12    29    1
    29    13    30    1
    30    13    31    1
