@<TRIPOS>MOLECULE
*****
 45 45 0 0 0
SMALL
GASTEIGER

@<TRIPOS>ATOM
      1 C           0.9351   -0.0488   -0.0584 C.1     1  UNL1       -0.1169
      2 C           2.2390   -0.0488   -0.0584 C.1     1  UNL1       -0.0773
      3 C           3.7590   -0.0488   -0.0584 C.3     1  UNL1        0.1080
      4 O           4.2323    0.4950    1.1650 O.3     1  UNL1       -0.3673
      5 C           5.6523    0.4950    1.1650 C.3     1  UNL1        0.0489
      6 C           6.1590    1.0771    2.4745 C.3     1  UNL1       -0.0294
      7 C           7.6790    1.0771    2.4745 C.3     1  UNL1       -0.0510
      8 C           8.1856    1.6592    3.7840 C.3     1  UNL1       -0.0529
      9 C           9.7056    1.6592    3.7840 C.3     1  UNL1       -0.0514
     10 C          10.2123    2.2413    5.0935 C.3     1  UNL1       -0.0333
     11 C          11.7323    2.2413    5.0935 C.3     1  UNL1        0.0432
     12 N          12.2223    2.8042    6.3600 N.ar    1  UNL1       -0.2515
     13 C          13.5917    2.9076    6.5926 C.ar    1  UNL1        0.0486
     14 C          14.0717    3.4591    7.8334 C.ar    1  UNL1        0.0829
     15 C          13.0840    3.9284    8.8891 C.3     1  UNL1       -0.0051
     16 C          11.6655    3.7066    8.3900 C.3     1  UNL1       -0.0242
     17 C          10.6777    4.1758    9.4457 C.3     1  UNL1        0.0446
     18 O           9.3526    3.9686    8.9795 O.3     1  UNL1       -0.3950
     19 N          15.4411    3.5625    8.0659 N.ar    1  UNL1       -0.1345
     20 N          11.3480    3.2196    7.2945 N.ar    1  UNL1       -0.0655
     21 H          -0.0589   -0.0488   -0.0584 H       1  UNL1        0.1229
     22 H           4.1156    0.5447   -0.8742 H       1  UNL1        0.0697
     23 H           4.1156   -1.0520   -0.1645 H       1  UNL1        0.0697
     24 H           6.0090    1.0885    0.3492 H       1  UNL1        0.0560
     25 H           6.0090   -0.5082    1.0589 H       1  UNL1        0.0560
     26 H           5.8023    0.4837    3.2903 H       1  UNL1        0.0287
     27 H           5.8023    2.0803    2.5805 H       1  UNL1        0.0287
     28 H           8.0356    1.6706    1.6587 H       1  UNL1        0.0266
     29 H           8.0356    0.0739    2.3684 H       1  UNL1        0.0266
     30 H           7.8290    1.0657    4.5998 H       1  UNL1        0.0265
     31 H           7.8290    2.6624    3.8901 H       1  UNL1        0.0265
     32 H          10.0623    2.2527    2.9682 H       1  UNL1        0.0266
     33 H          10.0623    0.6560    3.6780 H       1  UNL1        0.0266
     34 H           9.8556    1.6478    5.9093 H       1  UNL1        0.0283
     35 H           9.8556    3.2445    5.1996 H       1  UNL1        0.0283
     36 H          12.0890    2.8347    4.2778 H       1  UNL1        0.0509
     37 H          12.0890    1.2381    4.9875 H       1  UNL1        0.0509
     38 H          14.2623    2.5890    5.8758 H       1  UNL1        0.0845
     39 H          13.2356    4.9700    9.0815 H       1  UNL1        0.0330
     40 H          13.2356    3.3733    9.7912 H       1  UNL1        0.0330
     41 H          11.5139    2.6650    8.1976 H       1  UNL1        0.0291
     42 H          11.5139    4.2616    7.4879 H       1  UNL1        0.0291
     43 H          10.8293    5.2174    9.6381 H       1  UNL1        0.0557
     44 H          10.8293    3.6207   10.3478 H       1  UNL1        0.0557
     45 H           9.2151    4.4718    8.1617 H       1  UNL1        0.2094
@<TRIPOS>BOND
     1     1     2    3
     2     2     3    1
     3     3     4    1
     4     4     5    1
     5     5     6    1
     6     6     7    1
     7     7     8    1
     8     8     9    1
     9     9    10    1
    10    10    11    1
    11    11    12    1
    12    12    13   ar
    13    13    14   ar
    14    14    15    1
    15    15    16    1
    16    16    17    1
    17    17    18    1
    18    14    19   ar
    19    19    20   ar
    20    12    20   ar
    21     1    21    1
    22     3    22    1
    23     3    23    1
    24     5    24    1
    25     5    25    1
    26     6    26    1
    27     6    27    1
    28     7    28    1
    29     7    29    1
    30     8    30    1
    31     8    31    1
    32     9    32    1
    33     9    33    1
    34    10    34    1
    35    10    35    1
    36    11    36    1
    37    11    37    1
    38    13    38    1
    39    15    39    1
    40    15    40    1
    41    16    41    1
    42    16    42    1
    43    17    43    1
    44    17    44    1
    45    18    45    1
