@<TRIPOS>MOLECULE
*****
 36 35 0 0 0
SMALL
GASTEIGER

@<TRIPOS>ATOM
      1 C           0.9220   -0.0080    0.0620 C.3     1  UNL1       -0.0653
      2 C           2.4420   -0.0080    0.0620 C.3     1  UNL1       -0.0559
      3 C           2.9486    0.7760   -1.1375 C.3     1  UNL1       -0.0533
      4 C           4.4686    0.7760   -1.1375 C.3     1  UNL1       -0.0531
      5 C           4.9753    1.5600   -2.3371 C.3     1  UNL1       -0.0531
      6 C           6.4953    1.5600   -2.3371 C.3     1  UNL1       -0.0530
      7 C           7.0020    2.3441   -3.5367 C.3     1  UNL1       -0.0526
      8 C           8.5220    2.3441   -3.5367 C.3     1  UNL1       -0.0448
      9 C           9.0286    3.1281   -4.7363 C.3     1  UNL1        0.0239
     10 C          10.5486    3.1281   -4.7363 C.2     1  UNL1        0.2128
     11 O          11.1841    2.5259   -3.8150 O.2     1  UNL1       -0.2758
     12 N          11.2836    3.8246   -5.8019 N.am    1  UNL1       -0.3184
     13 C          12.7536    3.8246   -5.8019 C.3     1  UNL1        0.0001
     14 H           0.5653   -0.5600    0.9065 H       1  UNL1        0.0230
     15 H           0.5653   -0.4634   -0.8382 H       1  UNL1        0.0230
     16 H           0.5653    0.9992    0.1178 H       1  UNL1        0.0230
     17 H           2.7987   -1.0153    0.0063 H       1  UNL1        0.0263
     18 H           2.7987    0.4473    0.9622 H       1  UNL1        0.0263
     19 H           2.5920    1.7833   -1.0818 H       1  UNL1        0.0265
     20 H           2.5920    0.3207   -2.0377 H       1  UNL1        0.0265
     21 H           4.8253   -0.2313   -1.1933 H       1  UNL1        0.0265
     22 H           4.8253    1.2313   -0.2373 H       1  UNL1        0.0265
     23 H           4.6186    2.5673   -2.2814 H       1  UNL1        0.0265
     24 H           4.6186    1.1047   -3.2373 H       1  UNL1        0.0265
     25 H           6.8520    0.5528   -2.3929 H       1  UNL1        0.0265
     26 H           6.8520    2.0154   -1.4369 H       1  UNL1        0.0265
     27 H           6.6453    3.3513   -3.4809 H       1  UNL1        0.0265
     28 H           6.6453    1.8887   -4.4369 H       1  UNL1        0.0265
     29 H           8.8786    1.3368   -3.5924 H       1  UNL1        0.0270
     30 H           8.8786    2.7994   -2.6365 H       1  UNL1        0.0270
     31 H           8.6720    4.1354   -4.6805 H       1  UNL1        0.0358
     32 H           8.6720    2.6728   -5.6365 H       1  UNL1        0.0358
     33 H          10.7914    4.2910   -6.5156 H       1  UNL1        0.1484
     34 H          13.1103    3.2727   -4.9575 H       1  UNL1        0.0426
     35 H          13.1103    4.8318   -5.7461 H       1  UNL1        0.0426
     36 H          13.1103    3.3692   -6.7021 H       1  UNL1        0.0426
@<TRIPOS>BOND
     1     1     2    1
     2     2     3    1
     3     3     4    1
     4     4     5    1
     5     5     6    1
     6     6     7    1
     7     7     8    1
     8     8     9    1
     9     9    10    1
    10    10    11    2
    11    10    12   am
    12    12    13    1
    13     1    14    1
    14     1    15    1
    15     1    16    1
    16     2    17    1
    17     2    18    1
    18     3    19    1
    19     3    20    1
    20     4    21    1
    21     4    22    1
    22     5    23    1
    23     5    24    1
    24     6    25    1
    25     6    26    1
    26     7    27    1
    27     7    28    1
    28     8    29    1
    29     8    30    1
    30     9    31    1
    31     9    32    1
    32    12    33    1
    33    13    34    1
    34    13    35    1
    35    13    36    1
