@<TRIPOS>MOLECULE
*****
 34 34 0 0 0
SMALL
GASTEIGER

@<TRIPOS>ATOM
      1 C           1.0958   -0.0286   -0.0006 C.3     1  UNL1       -0.0653
      2 C           2.6158   -0.0286   -0.0006 C.3     1  UNL1       -0.0559
      3 C           3.1225    1.3981   -0.1350 C.3     1  UNL1       -0.0533
      4 C           4.6425    1.3981   -0.1350 C.3     1  UNL1       -0.0526
      5 C           5.1491    2.8249   -0.2694 C.3     1  UNL1       -0.0448
      6 C           6.6691    2.8249   -0.2694 C.3     1  UNL1        0.0243
      7 C           7.1758    4.2516   -0.4039 C.2     1  UNL1        0.2172
      8 O           6.3499    5.2134   -0.4945 O.2     1  UNL1       -0.2755
      9 N           8.6211    4.5191   -0.4291 N.am    1  UNL1       -0.2855
     10 C           9.1110    5.8989   -0.5591 C.ar    1  UNL1        0.0334
     11 C          10.5270    6.1609   -0.5838 C.ar    1  UNL1       -0.0405
     12 C          11.0071    7.5128   -0.7112 C.ar    1  UNL1       -0.0600
     13 C          12.4230    7.7748   -0.7358 C.ar    1  UNL1       -0.0616
     14 C          12.9031    9.1266   -0.8632 C.ar    1  UNL1       -0.0600
     15 C           8.1752    6.9887   -0.6618 C.ar    1  UNL1       -0.0405
     16 H           0.7392   -1.0330    0.0941 H       1  UNL1        0.0230
     17 H           0.7392    0.3916   -0.9177 H       1  UNL1        0.0230
     18 H           0.7392    0.5555    0.8219 H       1  UNL1        0.0230
     19 H           2.9725   -0.6127   -0.8230 H       1  UNL1        0.0263
     20 H           2.9725   -0.4488    0.9166 H       1  UNL1        0.0263
     21 H           2.7658    1.9823    0.6875 H       1  UNL1        0.0265
     22 H           2.7658    1.8184   -1.0521 H       1  UNL1        0.0265
     23 H           4.9991    0.8140   -0.9575 H       1  UNL1        0.0265
     24 H           4.9991    0.9779    0.7821 H       1  UNL1        0.0265
     25 H           4.7925    3.4090    0.5531 H       1  UNL1        0.0270
     26 H           4.7925    3.2451   -1.1865 H       1  UNL1        0.0270
     27 H           7.0258    2.2408   -1.0919 H       1  UNL1        0.0358
     28 H           7.0258    2.4047    0.6477 H       1  UNL1        0.0358
     29 H           9.2608    3.7741   -0.3589 H       1  UNL1        0.1548
     30 H          11.1976    5.3800   -0.5102 H       1  UNL1        0.0636
     31 H          10.3364    8.2937   -0.7847 H       1  UNL1        0.0618
     32 H          13.0936    6.9938   -0.6623 H       1  UNL1        0.0618
     33 H          13.6006    9.8839   -0.9346 H       1  UNL1        0.0618
     34 H           7.1677    7.2115   -0.6828 H       1  UNL1        0.0636
@<TRIPOS>BOND
     1     1     2    1
     2     2     3    1
     3     3     4    1
     4     4     5    1
     5     5     6    1
     6     6     7    1
     7     7     8    2
     8     7     9   am
     9     9    10    1
    10    10    11   ar
    11    11    12   ar
    12    12    13   ar
    13    13    14   ar
    14    14    15   ar
    15    10    15   ar
    16     1    16    1
    17     1    17    1
    18     1    18    1
    19     2    19    1
    20     2    20    1
    21     3    21    1
    22     3    22    1
    23     4    23    1
    24     4    24    1
    25     5    25    1
    26     5    26    1
    27     6    27    1
    28     6    28    1
    29     9    29    1
    30    11    30    1
    31    12    31    1
    32    13    32    1
    33    14    33    1
    34    15    34    1
