@<TRIPOS>MOLECULE
*****
 40 40 0 0 0
SMALL
GASTEIGER

@<TRIPOS>ATOM
      1 C           1.0047    0.0705    0.0708 C.3     1  UNL1       -0.0416
      2 C           2.5247    0.0705    0.0708 C.3     1  UNL1        0.0453
      3 O           2.9981   -1.0652    0.7796 O.3     1  UNL1       -0.3738
      4 C           4.4181   -1.0652    0.7796 C.3     1  UNL1        0.0929
      5 C           4.9247   -2.2810    1.5384 C.ar    1  UNL1        0.1083
      6 C           6.3407   -2.5042    1.6778 C.ar    1  UNL1        0.0510
      7 N           6.8049   -3.6182    2.3731 N.ar    1  UNL1       -0.2492
      8 C           5.8497   -4.5660    2.9647 C.3     1  UNL1        0.0665
      9 C           4.4312   -4.1027    2.6755 C.3     1  UNL1        0.0673
     10 O           3.5084   -5.0183    3.2469 O.3     1  UNL1       -0.3757
     11 C           2.1833   -4.5855    2.9768 C.3     1  UNL1        0.0711
     12 C           1.1955   -5.5656    3.5885 C.3     1  UNL1        0.0711
     13 O          -0.1297   -5.1327    3.3184 O.3     1  UNL1       -0.3763
     14 C          -1.0524   -6.0483    3.8898 C.3     1  UNL1        0.0600
     15 C          -2.4709   -5.5850    3.6007 C.3     1  UNL1        0.0166
     16 N          -3.4262   -6.5329    4.1922 N.3     1  UNL1       -0.3279
     17 N           8.1277   -3.8268    2.5032 N.ar    1  UNL1       -0.0653
     18 N           4.0196   -3.1790    2.0990 N.ar    1  UNL1       -0.1322
     19 H           0.6481    0.9263   -0.4634 H       1  UNL1        0.0252
     20 H           0.6481    0.1052    1.0790 H       1  UNL1        0.0252
     21 H           0.6481   -0.8200   -0.4033 H       1  UNL1        0.0252
     22 H           2.8814    0.9610    0.5448 H       1  UNL1        0.0557
     23 H           2.8814    0.0358   -0.9374 H       1  UNL1        0.0557
     24 H           4.7747   -0.1748    1.2537 H       1  UNL1        0.0626
     25 H           4.7747   -1.0999   -0.2286 H       1  UNL1        0.0626
     26 H           7.0113   -1.8388    1.2624 H       1  UNL1        0.0846
     27 H           6.0013   -4.6115    4.0229 H       1  UNL1        0.0532
     28 H           6.0013   -5.5367    2.5406 H       1  UNL1        0.0532
     29 H           4.2796   -4.0573    1.6172 H       1  UNL1        0.0578
     30 H           4.2796   -3.1321    3.0995 H       1  UNL1        0.0578
     31 H           2.0316   -4.5400    1.9186 H       1  UNL1        0.0583
     32 H           2.0316   -3.6149    3.4008 H       1  UNL1        0.0583
     33 H           1.3471   -5.6110    4.6467 H       1  UNL1        0.0583
     34 H           1.3471   -6.5362    3.1645 H       1  UNL1        0.0583
     35 H          -0.9008   -6.0938    4.9481 H       1  UNL1        0.0572
     36 H          -0.9008   -7.0190    3.4658 H       1  UNL1        0.0572
     37 H          -2.6225   -5.5396    2.5424 H       1  UNL1        0.0444
     38 H          -2.6225   -4.6144    4.0247 H       1  UNL1        0.0444
     39 H          -3.2816   -7.4581    3.7880 H       1  UNL1        0.1183
     40 H          -4.3780   -6.2220    3.9982 H       1  UNL1        0.1183
@<TRIPOS>BOND
     1     1     2    1
     2     2     3    1
     3     3     4    1
     4     4     5    1
     5     5     6   ar
     6     6     7   ar
     7     7     8    1
     8     8     9    1
     9     9    10    1
    10    10    11    1
    11    11    12    1
    12    12    13    1
    13    13    14    1
    14    14    15    1
    15    15    16    1
    16     7    17   ar
    17    17    18   ar
    18     5    18   ar
    19     1    19    1
    20     1    20    1
    21     1    21    1
    22     2    22    1
    23     2    23    1
    24     4    24    1
    25     4    25    1
    26     6    26    1
    27     8    27    1
    28     8    28    1
    29     9    29    1
    30     9    30    1
    31    11    31    1
    32    11    32    1
    33    12    33    1
    34    12    34    1
    35    14    35    1
    36    14    36    1
    37    15    37    1
    38    15    38    1
    39    16    39    1
    40    16    40    1
