@<TRIPOS>MOLECULE
*****
 33 33 0 0 0
SMALL
GASTEIGER

@<TRIPOS>ATOM
      1 C           1.0510    0.0427   -0.0747 C.1     1  UNL1       -0.1169
      2 C           2.3549    0.0427   -0.0747 C.1     1  UNL1       -0.0773
      3 C           3.8749    0.0427   -0.0747 C.3     1  UNL1        0.1080
      4 O           4.3482    0.2014    1.2547 O.3     1  UNL1       -0.3673
      5 C           5.7682    0.2014    1.2547 C.3     1  UNL1        0.0506
      6 C           6.2749    0.3713    2.6777 C.3     1  UNL1       -0.0097
      7 C           7.7949    0.3713    2.6777 C.3     1  UNL1        0.0453
      8 N           8.2849    0.5356    4.0538 N.ar    1  UNL1       -0.2514
      9 C           9.6542    0.5658    4.3065 C.ar    1  UNL1        0.0486
     10 C          10.1343    0.7267    5.6548 C.ar    1  UNL1        0.0829
     11 C           9.1465    0.8637    6.8020 C.3     1  UNL1       -0.0051
     12 C           7.7280    0.7990    6.2597 C.3     1  UNL1       -0.0242
     13 C           6.7403    0.9359    7.4068 C.3     1  UNL1        0.0446
     14 O           5.4151    0.8754    6.9002 O.3     1  UNL1       -0.3950
     15 N          11.5037    0.7569    5.9075 N.ar    1  UNL1       -0.1345
     16 N           7.4105    0.6568    5.0693 N.ar    1  UNL1       -0.0655
     17 H           0.0570    0.0427   -0.0747 H       1  UNL1        0.1229
     18 H           4.2315    0.8504   -0.6791 H       1  UNL1        0.0697
     19 H           4.2315   -0.8846   -0.4719 H       1  UNL1        0.0697
     20 H           6.1249    1.0091    0.6503 H       1  UNL1        0.0561
     21 H           6.1249   -0.7259    0.8574 H       1  UNL1        0.0561
     22 H           5.9182   -0.4364    3.2821 H       1  UNL1        0.0305
     23 H           5.9182    1.2986    3.0749 H       1  UNL1        0.0305
     24 H           8.1515    1.1790    2.0733 H       1  UNL1        0.0510
     25 H           8.1515   -0.5560    2.2804 H       1  UNL1        0.0510
     26 H          10.3249    0.4728    3.5277 H       1  UNL1        0.0845
     27 H           9.2981    1.8022    7.2931 H       1  UNL1        0.0330
     28 H           9.2981    0.0672    7.5002 H       1  UNL1        0.0330
     29 H           7.5764   -0.1395    5.7686 H       1  UNL1        0.0291
     30 H           7.5764    1.5955    5.5615 H       1  UNL1        0.0291
     31 H           6.8919    1.8744    7.8979 H       1  UNL1        0.0557
     32 H           6.8919    0.1394    8.1051 H       1  UNL1        0.0557
     33 H           5.2777    1.5975    6.2673 H       1  UNL1        0.2094
@<TRIPOS>BOND
     1     1     2    3
     2     2     3    1
     3     3     4    1
     4     4     5    1
     5     5     6    1
     6     6     7    1
     7     7     8    1
     8     8     9   ar
     9     9    10   ar
    10    10    11    1
    11    11    12    1
    12    12    13    1
    13    13    14    1
    14    10    15   ar
    15    15    16   ar
    16     8    16   ar
    17     1    17    1
    18     3    18    1
    19     3    19    1
    20     5    20    1
    21     5    21    1
    22     6    22    1
    23     6    23    1
    24     7    24    1
    25     7    25    1
    26     9    26    1
    27    11    27    1
    28    11    28    1
    29    12    29    1
    30    12    30    1
    31    13    31    1
    32    13    32    1
    33    14    33    1
