@<TRIPOS>MOLECULE
*****
 16 15 0 0 0
SMALL
GASTEIGER

@<TRIPOS>ATOM
      1 C           0.9772    0.0652    0.0723 C.1     1  UNL1       -0.1192
      2 C           2.2811    0.0652    0.0723 C.1     1  UNL1       -0.1056
      3 C           3.8011    0.0652    0.0723 C.3     1  UNL1        0.0089
      4 C           4.3077    1.0840    1.0801 C.3     1  UNL1       -0.0424
      5 C           5.8277    1.0840    1.0801 C.3     1  UNL1       -0.0551
      6 C           6.3344    2.1028    2.0880 C.3     1  UNL1       -0.0652
      7 H          -0.0168    0.0652    0.0723 H       1  UNL1        0.1228
      8 H           4.1578    0.3211   -0.9035 H       1  UNL1        0.0397
      9 H           4.1578   -0.9078    0.3386 H       1  UNL1        0.0397
     10 H           3.9511    0.8282    2.0560 H       1  UNL1        0.0274
     11 H           3.9511    2.0570    0.8138 H       1  UNL1        0.0274
     12 H           6.1844    1.3399    0.1043 H       1  UNL1        0.0263
     13 H           6.1844    0.1110    1.3465 H       1  UNL1        0.0263
     14 H           5.9777    3.0758    1.8217 H       1  UNL1        0.0230
     15 H           7.4044    2.1028    2.0880 H       1  UNL1        0.0230
     16 H           5.9777    1.8470    3.0638 H       1  UNL1        0.0230
@<TRIPOS>BOND
     1     1     2    3
     2     2     3    1
     3     3     4    1
     4     4     5    1
     5     5     6    1
     6     1     7    1
     7     3     8    1
     8     3     9    1
     9     4    10    1
    10     4    11    1
    11     5    12    1
    12     5    13    1
    13     6    14    1
    14     6    15    1
    15     6    16    1
