@<TRIPOS>MOLECULE
*****
 27 26 0 0 0
SMALL
GASTEIGER

@<TRIPOS>ATOM
      1 C           0.9530   -0.0653    0.0594 C.3     1  UNL1       -0.0653
      2 C           2.4730   -0.0653    0.0594 C.3     1  UNL1       -0.0559
      3 C           2.9796   -0.3609    1.4616 C.3     1  UNL1       -0.0533
      4 C           4.4996   -0.3609    1.4616 C.3     1  UNL1       -0.0517
      5 C           5.0063   -0.6566    2.8638 C.3     1  UNL1       -0.0374
      6 C           6.5263   -0.6566    2.8638 C.3     1  UNL1        0.0116
      7 N           7.0163   -0.9425    4.2200 N.am    1  UNL1       -0.3155
      8 C           8.4615   -0.9979    4.4828 C.2     1  UNL1        0.2099
      9 C           9.4493   -0.7596    3.3523 C.3     1  UNL1        0.0121
     10 O           8.8852   -1.2451    5.6553 O.2     1  UNL1       -0.2761
     11 H           0.5963    0.1428   -0.9278 H       1  UNL1        0.0230
     12 H           0.5963    0.6855    0.7331 H       1  UNL1        0.0230
     13 H           0.5963   -1.0242    0.3727 H       1  UNL1        0.0230
     14 H           2.8296    0.8936   -0.2540 H       1  UNL1        0.0263
     15 H           2.8296   -0.8161   -0.6144 H       1  UNL1        0.0263
     16 H           2.6230   -1.3199    1.7749 H       1  UNL1        0.0265
     17 H           2.6230    0.3899    2.1354 H       1  UNL1        0.0265
     18 H           4.8563    0.5980    1.1483 H       1  UNL1        0.0266
     19 H           4.8563   -1.1117    0.7878 H       1  UNL1        0.0266
     20 H           4.6496   -1.6155    3.1772 H       1  UNL1        0.0280
     21 H           4.6496    0.0942    3.5376 H       1  UNL1        0.0280
     22 H           6.8830    0.3023    2.5505 H       1  UNL1        0.0462
     23 H           6.8830   -1.4074    2.1901 H       1  UNL1        0.0462
     24 H           6.3765   -1.0968    4.9522 H       1  UNL1        0.1487
     25 H           8.9143   -0.5684    2.4456 H       1  UNL1        0.0322
     26 H          10.0644   -1.6261    3.2276 H       1  UNL1        0.0322
     27 H          10.0644    0.0836    3.5880 H       1  UNL1        0.0322
@<TRIPOS>BOND
     1     1     2    1
     2     2     3    1
     3     3     4    1
     4     4     5    1
     5     5     6    1
     6     6     7    1
     7     7     8   am
     8     8     9    1
     9     8    10    2
    10     1    11    1
    11     1    12    1
    12     1    13    1
    13     2    14    1
    14     2    15    1
    15     3    16    1
    16     3    17    1
    17     4    18    1
    18     4    19    1
    19     5    20    1
    20     5    21    1
    21     6    22    1
    22     6    23    1
    23     7    24    1
    24     9    25    1
    25     9    26    1
    26     9    27    1
