@<TRIPOS>MOLECULE
*****
 33 32 0 0 0
SMALL
GASTEIGER

@<TRIPOS>ATOM
      1 C           1.0858    0.0408    0.0312 C.3     1  UNL1       -0.0653
      2 C           2.6058    0.0408    0.0312 C.3     1  UNL1       -0.0559
      3 C           3.1125    1.1709    0.9124 C.3     1  UNL1       -0.0533
      4 C           4.6325    1.1709    0.9124 C.3     1  UNL1       -0.0531
      5 C           5.1391    2.3010    1.7936 C.3     1  UNL1       -0.0530
      6 C           6.6591    2.3010    1.7936 C.3     1  UNL1       -0.0516
      7 C           7.1658    3.4311    2.6749 C.3     1  UNL1       -0.0374
      8 C           8.6858    3.4311    2.6749 C.3     1  UNL1        0.0116
      9 N           9.1758    4.5240    3.5271 N.am    1  UNL1       -0.3155
     10 C          10.6210    4.7358    3.6923 C.2     1  UNL1        0.2099
     11 C          11.6088    3.8248    2.9819 C.3     1  UNL1        0.0121
     12 O          11.0447    5.6808    4.4291 O.2     1  UNL1       -0.2761
     13 H           0.7292   -0.7548   -0.5891 H       1  UNL1        0.0230
     14 H           0.7292    0.9758   -0.3476 H       1  UNL1        0.0230
     15 H           0.7292   -0.0987    1.0303 H       1  UNL1        0.0230
     16 H           2.9625    0.1802   -0.9679 H       1  UNL1        0.0263
     17 H           2.9625   -0.8942    0.4100 H       1  UNL1        0.0263
     18 H           2.7558    1.0314    1.9115 H       1  UNL1        0.0265
     19 H           2.7558    2.1059    0.5336 H       1  UNL1        0.0265
     20 H           4.9891    1.3103   -0.0867 H       1  UNL1        0.0265
     21 H           4.9892    0.2359    1.2912 H       1  UNL1        0.0265
     22 H           4.7825    2.1615    2.7928 H       1  UNL1        0.0265
     23 H           4.7825    3.2360    1.4149 H       1  UNL1        0.0265
     24 H           7.0158    2.4404    0.7945 H       1  UNL1        0.0266
     25 H           7.0158    1.3660    2.1724 H       1  UNL1        0.0266
     26 H           6.8091    3.2916    3.6740 H       1  UNL1        0.0280
     27 H           6.8091    4.3661    2.2961 H       1  UNL1        0.0280
     28 H           9.0425    3.5705    1.6757 H       1  UNL1        0.0462
     29 H           9.0425    2.4961    3.0537 H       1  UNL1        0.0462
     30 H           8.5360    5.1141    3.9872 H       1  UNL1        0.1487
     31 H          11.0738    3.0940    2.4120 H       1  UNL1        0.0322
     32 H          12.2240    3.3322    3.7057 H       1  UNL1        0.0322
     33 H          12.2240    4.4067    2.3278 H       1  UNL1        0.0322
@<TRIPOS>BOND
     1     1     2    1
     2     2     3    1
     3     3     4    1
     4     4     5    1
     5     5     6    1
     6     6     7    1
     7     7     8    1
     8     8     9    1
     9     9    10   am
    10    10    11    1
    11    10    12    2
    12     1    13    1
    13     1    14    1
    14     1    15    1
    15     2    16    1
    16     2    17    1
    17     3    18    1
    18     3    19    1
    19     4    20    1
    20     4    21    1
    21     5    22    1
    22     5    23    1
    23     6    24    1
    24     6    25    1
    25     7    26    1
    26     7    27    1
    27     8    28    1
    28     8    29    1
    29     9    30    1
    30    11    31    1
    31    11    32    1
    32    11    33    1
