@<TRIPOS>MOLECULE
*****
 25 24 0 0 0
SMALL
GASTEIGER

@<TRIPOS>ATOM
      1 C           1.0839    0.0091   -0.0536 C.3     1  UNL1       -0.0652
      2 C           2.6039    0.0091   -0.0536 C.3     1  UNL1       -0.0538
      3 C           3.1106   -1.2996   -0.6375 C.3     1  UNL1       -0.0297
      4 C           4.6306   -1.2996   -0.6375 C.3     1  UNL1        0.0477
      5 O           5.1039   -2.5223   -1.1830 O.3     1  UNL1       -0.3797
      6 C           6.5239   -2.5223   -1.1830 C.3     1  UNL1        0.0497
      7 C           7.0306   -3.8310   -1.7669 C.3     1  UNL1       -0.0062
      8 C           8.5506   -3.8310   -1.7669 C.3     1  UNL1        0.0463
      9 O           9.0239   -5.0536   -2.3124 O.3     1  UNL1       -0.3949
     10 H           0.7273    0.9304    0.3574 H       1  UNL1        0.0230
     11 H           0.7273   -0.8075    0.5387 H       1  UNL1        0.0230
     12 H           0.7273   -0.0956   -1.0570 H       1  UNL1        0.0230
     13 H           2.9606    0.1138    0.9498 H       1  UNL1        0.0263
     14 H           2.9606    0.8257   -0.6459 H       1  UNL1        0.0263
     15 H           2.7539   -1.4043   -1.6409 H       1  UNL1        0.0287
     16 H           2.7539   -2.1162   -0.0452 H       1  UNL1        0.0287
     17 H           4.9873   -1.1950    0.3659 H       1  UNL1        0.0560
     18 H           4.9873   -0.4830   -1.2298 H       1  UNL1        0.0560
     19 H           6.8806   -2.4176   -0.1796 H       1  UNL1        0.0560
     20 H           6.8806   -1.7056   -1.7753 H       1  UNL1        0.0560
     21 H           6.6739   -3.9356   -2.7703 H       1  UNL1        0.0309
     22 H           6.6739   -4.6476   -1.1746 H       1  UNL1        0.0309
     23 H           8.9073   -3.7263   -0.7635 H       1  UNL1        0.0558
     24 H           8.9073   -3.0144   -2.3592 H       1  UNL1        0.0558
     25 H           8.7006   -5.7939   -1.7754 H       1  UNL1        0.2094
@<TRIPOS>BOND
     1     1     2    1
     2     2     3    1
     3     3     4    1
     4     4     5    1
     5     5     6    1
     6     6     7    1
     7     7     8    1
     8     8     9    1
     9     1    10    1
    10     1    11    1
    11     1    12    1
    12     2    13    1
    13     2    14    1
    14     3    15    1
    15     3    16    1
    16     4    17    1
    17     4    18    1
    18     6    19    1
    19     6    20    1
    20     7    21    1
    21     7    22    1
    22     8    23    1
    23     8    24    1
    24     9    25    1
