@<TRIPOS>MOLECULE
*****
 27 27 0 0 0
SMALL
GASTEIGER

@<TRIPOS>ATOM
      1 O           0.9425   -0.0474    0.0667 O.2     1  UNL1       -0.2986
      2 C           2.2134   -0.0474    0.0667 C.2     1  UNL1        0.1458
      3 C           2.9734   -1.1957   -0.5768 C.3     1  UNL1        0.1028
      4 O           4.3695   -0.9694   -0.4499 O.3     1  UNL1       -0.3703
      5 C           5.0795   -2.0422   -1.0511 C.3     1  UNL1        0.0715
      6 C           6.5739   -1.7999   -0.9153 C.3     1  UNL1        0.0711
      7 O           7.2839   -2.8727   -1.5165 O.3     1  UNL1       -0.3757
      8 C           8.6800   -2.6463   -1.3896 C.3     1  UNL1        0.0673
      9 C           9.4400   -3.7947   -2.0331 C.3     1  UNL1        0.0665
     10 N          10.8852   -3.5604   -1.9018 N.ar    1  UNL1       -0.2495
     11 C          11.7903   -4.4839   -2.4193 C.ar    1  UNL1        0.0455
     12 C          13.2063   -4.2543   -2.2906 C.ar    1  UNL1        0.0693
     13 N          14.1114   -5.1779   -2.8081 N.ar    1  UNL1       -0.1380
     14 N          11.3337   -2.4537   -1.2817 N.ar    1  UNL1       -0.0657
     15 H           2.7294    0.7323    0.5036 H       1  UNL1        0.1051
     16 H           2.7149   -1.2582   -1.6132 H       1  UNL1        0.0636
     17 H           2.7149   -2.1123   -0.0889 H       1  UNL1        0.0636
     18 H           4.8210   -2.1046   -2.0875 H       1  UNL1        0.0583
     19 H           4.8210   -2.9587   -0.5632 H       1  UNL1        0.0583
     20 H           6.8324   -1.7375    0.1211 H       1  UNL1        0.0583
     21 H           6.8324   -0.8833   -1.4032 H       1  UNL1        0.0583
     22 H           8.9385   -2.5839   -0.3532 H       1  UNL1        0.0578
     23 H           8.9385   -1.7298   -1.8775 H       1  UNL1        0.0578
     24 H           9.1815   -3.8571   -3.0695 H       1  UNL1        0.0532
     25 H           9.1815   -4.7112   -1.5452 H       1  UNL1        0.0532
     26 H          11.4463   -5.3327   -2.8949 H       1  UNL1        0.0842
     27 H          13.5503   -3.4055   -1.8150 H       1  UNL1        0.0864
@<TRIPOS>BOND
     1     1     2    2
     2     2     3    1
     3     3     4    1
     4     4     5    1
     5     5     6    1
     6     6     7    1
     7     7     8    1
     8     8     9    1
     9     9    10    1
    10    10    11   ar
    11    11    12   ar
    12    12    13   ar
    13    13    14   ar
    14    10    14   ar
    15     2    15    1
    16     3    16    1
    17     3    17    1
    18     5    18    1
    19     5    19    1
    20     6    20    1
    21     6    21    1
    22     8    22    1
    23     8    23    1
    24     9    24    1
    25     9    25    1
    26    11    26    1
    27    12    27    1
