@<TRIPOS>MOLECULE
*****
 48 48 0 0 0
SMALL
GASTEIGER

@<TRIPOS>ATOM
      1 C           1.0943    0.0033    0.0332 C.3     1  UNL1       -0.0416
      2 C           2.6143    0.0033    0.0332 C.3     1  UNL1        0.0449
      3 O           3.0876   -1.3355    0.0318 O.3     1  UNL1       -0.3778
      4 C           4.5076   -1.3355    0.0318 C.3     1  UNL1        0.0710
      5 C           5.0143   -2.7685    0.0303 C.3     1  UNL1        0.0711
      6 O           6.4343   -2.7685    0.0303 O.3     1  UNL1       -0.3752
      7 C           6.9076   -4.1073    0.0289 C.3     1  UNL1        0.0711
      8 C           8.4276   -4.1073    0.0289 C.3     1  UNL1        0.0711
      9 O           8.9009   -5.4461    0.0276 O.3     1  UNL1       -0.3757
     10 C          10.3209   -5.4461    0.0276 C.3     1  UNL1        0.0673
     11 C          10.8276   -6.8792    0.0261 C.3     1  UNL1        0.0665
     12 N          12.2976   -6.8792    0.0261 N.ar    1  UNL1       -0.2492
     13 C          12.9940   -8.0854    0.0248 C.ar    1  UNL1        0.0487
     14 C          14.4342   -8.0854    0.0248 C.ar    1  UNL1        0.0829
     15 C          15.1942   -6.7690    0.0262 C.3     1  UNL1       -0.0067
     16 C          14.2064   -5.6137    0.0274 C.3     1  UNL1       -0.0393
     17 C          14.9664   -4.2974    0.0287 C.3     1  UNL1        0.0241
     18 C          13.9787   -3.1420    0.0299 C.2     1  UNL1        0.2105
     19 N          12.5335   -3.4107    0.0297 N.am    1  UNL1       -0.3293
     20 O          14.4023   -1.9438    0.0312 O.2     1  UNL1       -0.2760
     21 N          15.1306   -9.2916    0.0236 N.ar    1  UNL1       -0.1345
     22 N          12.9703   -5.7140    0.0273 N.ar    1  UNL1       -0.0654
     23 H           0.7376    1.0121    0.0342 H       1  UNL1        0.0252
     24 H           0.7376   -0.5020    0.9063 H       1  UNL1        0.0252
     25 H           0.7376   -0.5002   -0.8410 H       1  UNL1        0.0252
     26 H           2.9709    0.5068    0.9074 H       1  UNL1        0.0557
     27 H           2.9709    0.5086   -0.8399 H       1  UNL1        0.0557
     28 H           4.8643   -0.8320    0.9060 H       1  UNL1        0.0583
     29 H           4.8643   -0.8301   -0.8413 H       1  UNL1        0.0583
     30 H           4.6576   -3.2720   -0.8439 H       1  UNL1        0.0583
     31 H           4.6576   -3.2738    0.9034 H       1  UNL1        0.0583
     32 H           6.5509   -4.6108   -0.8452 H       1  UNL1        0.0583
     33 H           6.5509   -4.6126    0.9021 H       1  UNL1        0.0583
     34 H           8.7843   -3.6038    0.9031 H       1  UNL1        0.0583
     35 H           8.7843   -3.6020   -0.8442 H       1  UNL1        0.0583
     36 H          10.6776   -4.9426    0.9017 H       1  UNL1        0.0578
     37 H          10.6776   -4.9408   -0.8456 H       1  UNL1        0.0578
     38 H          10.4709   -7.3827   -0.8481 H       1  UNL1        0.0532
     39 H          10.4709   -7.3845    0.8992 H       1  UNL1        0.0532
     40 H          12.4780   -8.9791    0.0239 H       1  UNL1        0.0845
     41 H          15.8094   -6.7115   -0.8474 H       1  UNL1        0.0329
     42 H          15.8094   -6.7133    0.8999 H       1  UNL1        0.0329
     43 H          13.5913   -5.6713    0.9010 H       1  UNL1        0.0273
     44 H          13.5913   -5.6695   -0.8463 H       1  UNL1        0.0273
     45 H          15.5816   -4.2398   -0.8448 H       1  UNL1        0.0358
     46 H          15.5816   -4.2416    0.9025 H       1  UNL1        0.0358
     47 H          12.2053   -4.3389    0.0287 H       1  UNL1        0.1449
     48 H          11.8937   -2.6624    0.0304 H       1  UNL1        0.1449
@<TRIPOS>BOND
     1     1     2    1
     2     2     3    1
     3     3     4    1
     4     4     5    1
     5     5     6    1
     6     6     7    1
     7     7     8    1
     8     8     9    1
     9     9    10    1
    10    10    11    1
    11    11    12    1
    12    12    13   ar
    13    13    14   ar
    14    14    15    1
    15    15    16    1
    16    16    17    1
    17    17    18    1
    18    18    19   am
    19    18    20    2
    20    14    21   ar
    21    21    22   ar
    22    12    22   ar
    23     1    23    1
    24     1    24    1
    25     1    25    1
    26     2    26    1
    27     2    27    1
    28     4    28    1
    29     4    29    1
    30     5    30    1
    31     5    31    1
    32     7    32    1
    33     7    33    1
    34     8    34    1
    35     8    35    1
    36    10    36    1
    37    10    37    1
    38    11    38    1
    39    11    39    1
    40    13    40    1
    41    15    41    1
    42    15    42    1
    43    16    43    1
    44    16    44    1
    45    17    45    1
    46    17    46    1
    47    19    47    1
    48    19    48    1
