@<TRIPOS>MOLECULE
*****
 43 43 0 0 0
SMALL
GASTEIGER

@<TRIPOS>ATOM
      1 C           0.9454    0.0406    0.0733 C.3     1  UNL1        0.0029
      2 N           2.4154    0.0406    0.0733 N.am    1  UNL1       -0.3070
      3 C           3.1504    1.2465   -0.3349 C.2     1  UNL1        0.2023
      4 O           2.5150    2.2890   -0.6877 O.2     1  UNL1       -0.2793
      5 C           3.1504   -1.1652    0.4814 C.3     1  UNL1        0.0155
      6 C           4.6448   -0.9021    0.3924 C.3     1  UNL1       -0.0214
      7 C           5.4048   -2.1490    0.8144 C.3     1  UNL1        0.0133
      8 N           6.8501   -1.8946    0.7283 N.pl3   1  UNL1       -0.3329
      9 C           7.3401   -0.5818    0.2840 C.3     1  UNL1        0.0007
     10 C           7.8053   -2.9529    1.0865 C.ar    1  UNL1        0.0295
     11 C           9.2213   -2.7036    1.0021 C.ar    1  UNL1       -0.0404
     12 C          10.1572   -3.7405    1.3531 C.ar    1  UNL1       -0.0568
     13 C          11.5731   -3.4912    1.2687 C.ar    1  UNL1       -0.0472
     14 C          12.0798   -2.1338    0.8093 C.3     1  UNL1       -0.0256
     15 C          10.8976   -1.2289    0.5030 C.3     1  UNL1       -0.0257
     16 C          11.4042    0.1286    0.0435 C.3     1  UNL1        0.0445
     17 O          10.2998    0.9740   -0.2426 O.3     1  UNL1       -0.3950
     18 C          12.5090   -4.5281    1.6196 C.ar    1  UNL1       -0.0568
     19 C           7.3253   -4.2391    1.5218 C.ar    1  UNL1       -0.0404
     20 H           0.5888    0.9962   -0.2501 H       1  UNL1        0.0428
     21 H           0.5888   -0.1571    1.0625 H       1  UNL1        0.0428
     22 H           0.5888   -0.7172   -0.5925 H       1  UNL1        0.0428
     23 H           4.1824    1.2465   -0.3349 H       1  UNL1        0.1253
     24 H           2.8919   -1.9768   -0.1662 H       1  UNL1        0.0465
     25 H           2.8919   -1.4166    1.4888 H       1  UNL1        0.0465
     26 H           4.9033   -0.0906    1.0400 H       1  UNL1        0.0295
     27 H           4.9033   -0.6508   -0.6150 H       1  UNL1        0.0295
     28 H           5.1463   -2.9606    0.1667 H       1  UNL1        0.0464
     29 H           5.1463   -2.4004    1.8218 H       1  UNL1        0.0464
     30 H           6.5078    0.0552    0.0683 H       1  UNL1        0.0428
     31 H           7.9345   -0.7026   -0.5975 H       1  UNL1        0.0428
     32 H           7.9345   -0.1424    1.0576 H       1  UNL1        0.0428
     33 H           9.5653   -1.7820    0.6902 H       1  UNL1        0.0636
     34 H           9.8132   -4.6621    1.6650 H       1  UNL1        0.0621
     35 H          12.6742   -2.2546   -0.0722 H       1  UNL1        0.0314
     36 H          12.6742   -1.6944    1.5829 H       1  UNL1        0.0314
     37 H          10.3031   -1.1080    1.3844 H       1  UNL1        0.0290
     38 H          10.3031   -1.6682   -0.2707 H       1  UNL1        0.0290
     39 H          11.9987    0.0077   -0.8379 H       1  UNL1        0.0557
     40 H          11.9987    0.5679    0.8171 H       1  UNL1        0.0557
     41 H           9.7609    0.5757   -0.9440 H       1  UNL1        0.2094
     42 H          13.4332   -4.9631    1.7669 H       1  UNL1        0.0621
     43 H           6.4655   -4.7797    1.7048 H       1  UNL1        0.0636
@<TRIPOS>BOND
     1     1     2    1
     2     2     3   am
     3     3     4    2
     4     2     5    1
     5     5     6    1
     6     6     7    1
     7     7     8    1
     8     8     9    1
     9     8    10    1
    10    10    11   ar
    11    11    12   ar
    12    12    13   ar
    13    13    14    1
    14    14    15    1
    15    15    16    1
    16    16    17    1
    17    13    18   ar
    18    18    19   ar
    19    10    19   ar
    20     1    20    1
    21     1    21    1
    22     1    22    1
    23     3    23    1
    24     5    24    1
    25     5    25    1
    26     6    26    1
    27     6    27    1
    28     7    28    1
    29     7    29    1
    30     9    30    1
    31     9    31    1
    32     9    32    1
    33    11    33    1
    34    12    34    1
    35    14    35    1
    36    14    36    1
    37    15    37    1
    38    15    38    1
    39    16    39    1
    40    16    40    1
    41    17    41    1
    42    18    42    1
    43    19    43    1
