@<TRIPOS>MOLECULE
*****
 49 48 0 0 0
SMALL
GASTEIGER

@<TRIPOS>ATOM
      1 C           1.0261    0.0069    0.0963 C.3     1  UNL1       -0.0157
      2 N           2.4961    0.0069    0.0963 N.3     1  UNL1       -0.3168
      3 C           2.9861   -0.6853    1.2970 C.3     1  UNL1        0.0191
      4 C           4.5061   -0.6853    1.2970 C.3     1  UNL1        0.0602
      5 O           4.9794   -1.3539    2.4569 O.3     1  UNL1       -0.3763
      6 C           6.3994   -1.3539    2.4569 C.3     1  UNL1        0.0711
      7 C           6.9061   -2.0696    3.6985 C.3     1  UNL1        0.0711
      8 O           8.3261   -2.0696    3.6985 O.3     1  UNL1       -0.3752
      9 C           8.7994   -2.7382    4.8583 C.3     1  UNL1        0.0711
     10 C          10.3194   -2.7382    4.8583 C.3     1  UNL1        0.0711
     11 O          10.7927   -3.4068    6.0182 O.3     1  UNL1       -0.3752
     12 C          12.2127   -3.4068    6.0182 C.3     1  UNL1        0.0711
     13 C          12.7194   -4.1225    7.2598 C.3     1  UNL1        0.0711
     14 O          14.1394   -4.1225    7.2598 O.3     1  UNL1       -0.3752
     15 C          14.6127   -4.7911    8.4197 C.3     1  UNL1        0.0711
     16 C          16.1327   -4.7911    8.4197 C.3     1  UNL1        0.0711
     17 O          16.6061   -5.4597    9.5796 O.3     1  UNL1       -0.3752
     18 C          18.0261   -5.4597    9.5796 C.3     1  UNL1        0.0708
     19 C          18.5327   -6.1754   10.8211 C.3     1  UNL1        0.0676
     20 O          19.9527   -6.1754   10.8211 O.3     1  UNL1       -0.3927
     21 H           0.6694    0.5107   -0.7777 H       1  UNL1        0.0388
     22 H           0.6694    0.5119    0.9696 H       1  UNL1        0.0388
     23 H           0.6694   -1.0019    0.0970 H       1  UNL1        0.0388
     24 H           2.8361    0.9685    0.0956 H       1  UNL1        0.1217
     25 H           2.6294   -1.6941    1.2977 H       1  UNL1        0.0446
     26 H           2.6294   -0.1803    2.1703 H       1  UNL1        0.0446
     27 H           4.8628    0.3235    1.2963 H       1  UNL1        0.0572
     28 H           4.8628   -1.1903    0.4237 H       1  UNL1        0.0572
     29 H           6.7561   -0.3451    2.4562 H       1  UNL1        0.0583
     30 H           6.7561   -1.8589    1.5836 H       1  UNL1        0.0583
     31 H           6.5494   -3.0784    3.6991 H       1  UNL1        0.0583
     32 H           6.5494   -1.5646    4.5718 H       1  UNL1        0.0583
     33 H           8.4427   -3.7470    4.8590 H       1  UNL1        0.0583
     34 H           8.4427   -2.2332    5.7316 H       1  UNL1        0.0583
     35 H          10.6761   -1.7294    4.8577 H       1  UNL1        0.0583
     36 H          10.6761   -3.2432    3.9850 H       1  UNL1        0.0583
     37 H          12.5694   -2.3980    6.0175 H       1  UNL1        0.0583
     38 H          12.5694   -3.9118    5.1449 H       1  UNL1        0.0583
     39 H          12.3627   -5.1313    7.2605 H       1  UNL1        0.0583
     40 H          12.3627   -3.6175    8.1331 H       1  UNL1        0.0583
     41 H          14.2561   -5.7999    8.4204 H       1  UNL1        0.0583
     42 H          14.2561   -4.2861    9.2930 H       1  UNL1        0.0583
     43 H          16.4894   -3.7823    8.4190 H       1  UNL1        0.0583
     44 H          16.4894   -5.2961    7.5464 H       1  UNL1        0.0583
     45 H          18.3827   -4.4509    9.5789 H       1  UNL1        0.0583
     46 H          18.3827   -5.9647    8.7062 H       1  UNL1        0.0583
     47 H          18.1761   -7.1842   10.8218 H       1  UNL1        0.0580
     48 H          18.1761   -5.6704   11.6944 H       1  UNL1        0.0580
     49 H          20.2760   -6.6332   10.0294 H       1  UNL1        0.2095
@<TRIPOS>BOND
     1     1     2    1
     2     2     3    1
     3     3     4    1
     4     4     5    1
     5     5     6    1
     6     6     7    1
     7     7     8    1
     8     8     9    1
     9     9    10    1
    10    10    11    1
    11    11    12    1
    12    12    13    1
    13    13    14    1
    14    14    15    1
    15    15    16    1
    16    16    17    1
    17    17    18    1
    18    18    19    1
    19    19    20    1
    20     1    21    1
    21     1    22    1
    22     1    23    1
    23     2    24    1
    24     3    25    1
    25     3    26    1
    26     4    27    1
    27     4    28    1
    28     6    29    1
    29     6    30    1
    30     7    31    1
    31     7    32    1
    32     9    33    1
    33     9    34    1
    34    10    35    1
    35    10    36    1
    36    12    37    1
    37    12    38    1
    38    13    39    1
    39    13    40    1
    40    15    41    1
    41    15    42    1
    42    16    43    1
    43    16    44    1
    44    18    45    1
    45    18    46    1
    46    19    47    1
    47    19    48    1
    48    20    49    1
