@<TRIPOS>MOLECULE
*****
 18 18 0 0 0
SMALL
GASTEIGER

@<TRIPOS>ATOM
      1 C           0.9458    0.0799    0.0260 C.3     1  UNL1       -0.0191
      2 C           2.4658    0.0799    0.0260 C.ar    1  UNL1        0.0798
      3 C           3.1859    1.0203   -0.7933 C.ar    1  UNL1        0.0489
      4 N           4.5787    1.0203   -0.7933 N.ar    1  UNL1       -0.2426
      5 C           5.3137    0.0605    0.0430 C.3     1  UNL1        0.1190
      6 C           4.3260   -0.8106    0.8019 C.2     1  UNL1        0.2320
      7 N           2.8807   -0.6081    0.6255 N.am    1  UNL1       -0.3278
      8 O           4.7496   -1.7140    1.5891 O.2     1  UNL1       -0.2740
      9 N           5.2515    1.8988   -1.5588 N.ar    1  UNL1       -0.0650
     10 N           3.1622   -0.8295    0.8184 N.ar    1  UNL1       -0.1348
     11 H           0.5892    0.8405   -0.6367 H       1  UNL1        0.0294
     12 H           0.5891    0.2735    1.0161 H       1  UNL1        0.0294
     13 H           0.5891   -0.8743   -0.3013 H       1  UNL1        0.0294
     14 H           2.6699    1.6941   -1.3804 H       1  UNL1        0.0845
     15 H           5.9289    0.5916    0.7389 H       1  UNL1        0.0605
     16 H           5.9289   -0.5562   -0.5785 H       1  UNL1        0.0605
     17 H           2.5526    0.0917    0.0157 H       1  UNL1        0.1450
     18 H           2.2410   -1.1723    1.1171 H       1  UNL1        0.1450
@<TRIPOS>BOND
     1     1     2    1
     2     2     3   ar
     3     3     4   ar
     4     4     5    1
     5     5     6    1
     6     6     7   am
     7     6     8    2
     8     4     9   ar
     9     9    10   ar
    10     2    10   ar
    11     1    11    1
    12     1    12    1
    13     1    13    1
    14     3    14    1
    15     5    15    1
    16     5    16    1
    17     7    17    1
    18     7    18    1
