@<TRIPOS>MOLECULE
*****
 31 32 0 0 0
SMALL
GASTEIGER

@<TRIPOS>ATOM
      1 C           1.0364   -0.0421    0.0831 C.3     1  UNL1       -0.0027
      2 C           2.5564   -0.0421    0.0831 C.3     1  UNL1       -0.0247
      3 C           3.0630    1.1897   -0.6493 C.3     1  UNL1        0.0128
      4 N           2.5730    2.3987    0.0283 N.3     1  UNL1       -0.2969
      5 C           1.1030    2.3987    0.0283 C.3     1  UNL1        0.0118
      6 C           0.5964    3.6488    0.7289 C.3     1  UNL1        0.0087
      7 N          -0.8736    3.6488    0.7289 N.3     1  UNL1       -0.3136
      8 C          -1.3636    4.8578    1.4064 C.3     1  UNL1        0.0087
      9 C           3.0630    3.5900   -0.6800 C.3     1  UNL1        0.0118
     10 C           4.5830    1.1897   -0.6493 C.3     1  UNL1       -0.0247
     11 C           5.0897    2.4215   -1.3816 C.3     1  UNL1       -0.0027
     12 N           0.5464   -1.2334    0.7913 N.3     1  UNL1       -0.3159
     13 H           0.6797   -0.0550   -0.9257 H       1  UNL1        0.0424
     14 H           0.6797    0.8379    0.5763 H       1  UNL1        0.0424
     15 H           2.9131   -0.9222   -0.4101 H       1  UNL1        0.0293
     16 H           2.9131   -0.0292    1.0918 H       1  UNL1        0.0293
     17 H           2.7064    1.1768   -1.6580 H       1  UNL1        0.0463
     18 H           0.7464    1.5315    0.5438 H       1  UNL1        0.0439
     19 H           0.7464    2.3858   -0.9805 H       1  UNL1        0.0439
     20 H           0.9530    4.5159    0.2133 H       1  UNL1        0.0437
     21 H           0.9530    3.6617    1.7376 H       1  UNL1        0.0437
     22 H          -1.2136    2.8222    1.2203 H       1  UNL1        0.1220
     23 H          -1.5004    4.8982    2.4669 H       1  UNL1        0.0437
     24 H          -2.1340    5.5957    1.3228 H       1  UNL1        0.0437
     25 H           3.9438    4.0648   -0.3008 H       1  UNL1        0.0439
     26 H           3.3777    3.6845   -1.6983 H       1  UNL1        0.0439
     27 H           4.9397    0.3096   -1.1425 H       1  UNL1        0.0293
     28 H           4.9397    1.2026    0.3594 H       1  UNL1        0.0293
     29 H           5.4278    2.4194   -2.3968 H       1  UNL1        0.0424
     30 H           5.5924    3.3627   -1.3024 H       1  UNL1        0.0424
     31 H           0.2241   -1.2315    1.7591 H       1  UNL1        0.1219
@<TRIPOS>BOND
     1     1     2    1
     2     2     3    1
     3     3     4    1
     4     4     5    1
     5     5     6    1
     6     6     7    1
     7     7     8    1
     8     8     9    1
     9     4     9    1
    10     3    10    1
    11    10    11    1
    12    11    12    1
    13     1    12    1
    14     1    13    1
    15     1    14    1
    16     2    15    1
    17     2    16    1
    18     3    17    1
    19     5    18    1
    20     5    19    1
    21     6    20    1
    22     6    21    1
    23     7    22    1
    24     8    23    1
    25     8    24    1
    26     9    25    1
    27     9    26    1
    28    10    27    1
    29    10    28    1
    30    11    29    1
    31    11    30    1
    32    12    31    1
