@<TRIPOS>MOLECULE
*****
 16 15 0 0 0
SMALL
GASTEIGER

@<TRIPOS>ATOM
      1 C           0.9256    0.0543   -0.0389 C.1     1  UNL1       -0.1192
      2 C           2.2294    0.0543   -0.0389 C.1     1  UNL1       -0.1056
      3 C           3.7494    0.0543   -0.0389 C.3     1  UNL1        0.0089
      4 C           4.2561   -1.0579   -0.9426 C.3     1  UNL1       -0.0424
      5 C           5.7761   -1.0579   -0.9426 C.3     1  UNL1       -0.0551
      6 C           6.2827   -2.1701   -1.8463 C.3     1  UNL1       -0.0652
      7 H          -0.0684    0.0543   -0.0389 H       1  UNL1        0.1228
      8 H           4.1061   -0.1052    0.9572 H       1  UNL1        0.0397
      9 H           4.1061    0.9967   -0.3989 H       1  UNL1        0.0397
     10 H           3.8994   -0.8985   -1.9387 H       1  UNL1        0.0274
     11 H           3.8994   -2.0003   -0.5827 H       1  UNL1        0.0274
     12 H           6.1327   -1.2174    0.0535 H       1  UNL1        0.0263
     13 H           6.1327   -0.1155   -1.3026 H       1  UNL1        0.0263
     14 H           5.9261   -3.1125   -1.4864 H       1  UNL1        0.0230
     15 H           7.3527   -2.1701   -1.8463 H       1  UNL1        0.0230
     16 H           5.9261   -2.0107   -2.8425 H       1  UNL1        0.0230
@<TRIPOS>BOND
     1     1     2    3
     2     2     3    1
     3     3     4    1
     4     4     5    1
     5     5     6    1
     6     1     7    1
     7     3     8    1
     8     3     9    1
     9     4    10    1
    10     4    11    1
    11     5    12    1
    12     5    13    1
    13     6    14    1
    14     6    15    1
    15     6    16    1
