@<TRIPOS>MOLECULE
*****
 31 32 0 0 0
SMALL
GASTEIGER

@<TRIPOS>ATOM
      1 C           0.9967   -0.0541   -0.0840 C.3     1  UNL1       -0.0027
      2 C           2.5167   -0.0541   -0.0840 C.3     1  UNL1       -0.0247
      3 C           3.0233    0.5284    1.2253 C.3     1  UNL1        0.0128
      4 N           2.5333   -0.2864    2.3464 N.3     1  UNL1       -0.2969
      5 C           1.0633   -0.2864    2.3463 C.3     1  UNL1        0.0118
      6 C           0.5567   -1.1290    3.5055 C.3     1  UNL1        0.0087
      7 N          -0.9133   -1.1290    3.5055 N.3     1  UNL1       -0.3136
      8 C          -1.4033   -1.9439    4.6266 C.3     1  UNL1        0.0087
      9 C           3.0233    0.2770    3.6126 C.3     1  UNL1        0.0118
     10 C           4.5433    0.5284    1.2253 C.3     1  UNL1       -0.0247
     11 C           5.0500    1.1110    2.5346 C.3     1  UNL1       -0.0027
     12 N           0.5067   -0.6176   -1.3503 N.3     1  UNL1       -0.3159
     13 H           0.6400    0.9491    0.0217 H       1  UNL1        0.0424
     14 H           0.6400   -0.6473    0.7320 H       1  UNL1        0.0424
     15 H           2.8733    0.5390   -0.9000 H       1  UNL1        0.0293
     16 H           2.8733   -1.0574   -0.1897 H       1  UNL1        0.0293
     17 H           2.6667    1.5317    1.3310 H       1  UNL1        0.0463
     18 H           0.7067   -0.6965    1.4247 H       1  UNL1        0.0439
     19 H           0.7067    0.7168    2.4520 H       1  UNL1        0.0439
     20 H           0.9133   -0.7189    4.4272 H       1  UNL1        0.0437
     21 H           0.9133   -2.1323    3.3999 H       1  UNL1        0.0437
     22 H          -1.2533   -1.5200    2.6269 H       1  UNL1        0.1220
     23 H          -1.5402   -3.0018    4.5421 H       1  UNL1        0.0437
     24 H          -2.1737   -1.9475    5.3692 H       1  UNL1        0.0437
     25 H           3.9041   -0.1554    4.0395 H       1  UNL1        0.0439
     26 H           3.3379    1.2771    3.8260 H       1  UNL1        0.0439
     27 H           4.9000    1.1216    0.4093 H       1  UNL1        0.0293
     28 H           4.9000   -0.4748    1.1196 H       1  UNL1        0.0293
     29 H           5.3881    2.1194    2.6518 H       1  UNL1        0.0424
     30 H           5.5526    0.9218    3.4601 H       1  UNL1        0.0424
     31 H           0.1844   -1.5788   -1.4620 H       1  UNL1        0.1219
@<TRIPOS>BOND
     1     1     2    1
     2     2     3    1
     3     3     4    1
     4     4     5    1
     5     5     6    1
     6     6     7    1
     7     7     8    1
     8     8     9    1
     9     4     9    1
    10     3    10    1
    11    10    11    1
    12    11    12    1
    13     1    12    1
    14     1    13    1
    15     1    14    1
    16     2    15    1
    17     2    16    1
    18     3    17    1
    19     5    18    1
    20     5    19    1
    21     6    20    1
    22     6    21    1
    23     7    22    1
    24     8    23    1
    25     8    24    1
    26     9    25    1
    27     9    26    1
    28    10    27    1
    29    10    28    1
    30    11    29    1
    31    11    30    1
    32    12    31    1
