@<TRIPOS>MOLECULE
*****
 20 20 0 0 0
SMALL
GASTEIGER

@<TRIPOS>ATOM
      1 C           0.9631    0.0716   -0.0593 C.3     1  UNL1       -0.0128
      2 N           2.4331    0.0716   -0.0593 N.3     1  UNL1       -0.3053
      3 C           2.9231    0.2403    1.3163 C.3     1  UNL1       -0.0014
      4 C           4.4431    0.2403    1.3163 C.3     1  UNL1       -0.0402
      5 C           4.9498    0.4147    2.7387 C.3     1  UNL1       -0.0507
      6 C           6.4698    0.4147    2.7387 C.3     1  UNL1       -0.0402
      7 C           2.9231    1.1786   -0.8932 C.3     1  UNL1       -0.0014
      8 H           0.6065   -0.7342    0.5477 H       1  UNL1        0.0391
      9 H           0.6065   -0.0512   -1.0606 H       1  UNL1        0.0391
     10 H           0.6065    1.0001    0.3350 H       1  UNL1        0.0391
     11 H           2.5665   -0.5655    1.9233 H       1  UNL1        0.0426
     12 H           2.5665    1.1688    1.7106 H       1  UNL1        0.0426
     13 H           4.7998    1.0460    0.7093 H       1  UNL1        0.0278
     14 H           4.7998   -0.6883    0.9220 H       1  UNL1        0.0278
     15 H           4.5931   -0.3911    3.3457 H       1  UNL1        0.0266
     16 H           4.5931    1.3432    3.1330 H       1  UNL1        0.0266
     17 H           7.0378   -0.4903    2.7966 H       1  UNL1        0.0278
     18 H           7.2958    0.9109    3.2040 H       1  UNL1        0.0278
     19 H           3.1937    0.9545   -1.9039 H       1  UNL1        0.0426
     20 H           2.4246    2.0861   -1.1629 H       1  UNL1        0.0426
@<TRIPOS>BOND
     1     1     2    1
     2     2     3    1
     3     3     4    1
     4     4     5    1
     5     5     6    1
     6     6     7    1
     7     2     7    1
     8     1     8    1
     9     1     9    1
    10     1    10    1
    11     3    11    1
    12     3    12    1
    13     4    13    1
    14     4    14    1
    15     5    15    1
    16     5    16    1
    17     6    17    1
    18     6    18    1
    19     7    19    1
    20     7    20    1
