@<TRIPOS>MOLECULE
*****
 31 32 0 0 0
SMALL
GASTEIGER

@<TRIPOS>ATOM
      1 C           1.0935    0.0335   -0.0118 C.3     1  UNL1       -0.0027
      2 C           2.6135    0.0335   -0.0118 C.3     1  UNL1       -0.0247
      3 C           3.1202    1.2147    0.7996 C.3     1  UNL1        0.0128
      4 N           2.6302    1.1063    2.1813 N.3     1  UNL1       -0.2969
      5 C           1.1602    1.1063    2.1813 C.3     1  UNL1        0.0118
      6 C           0.6535    0.9942    3.6100 C.3     1  UNL1        0.0087
      7 N          -0.8165    0.9942    3.6100 N.3     1  UNL1       -0.3136
      8 C          -1.3065    0.8858    4.9916 C.3     1  UNL1        0.0087
      9 C           3.1201    2.2487    2.9660 C.3     1  UNL1        0.0118
     10 C           4.6402    1.2147    0.7996 C.3     1  UNL1       -0.0247
     11 C           5.1468    2.3959    1.6110 C.3     1  UNL1       -0.0027
     12 N           0.6035   -1.1089   -0.7965 N.3     1  UNL1       -0.3159
     13 H           0.7368    0.9439   -0.4463 H       1  UNL1        0.0424
     14 H           0.7368   -0.0454    0.9939 H       1  UNL1        0.0424
     15 H           2.9702    0.1124   -1.0175 H       1  UNL1        0.0293
     16 H           2.9702   -0.8770    0.4227 H       1  UNL1        0.0293
     17 H           2.7635    2.1251    0.3651 H       1  UNL1        0.0463
     18 H           0.8035    0.2748    1.6101 H       1  UNL1        0.0439
     19 H           0.8035    2.0167    1.7468 H       1  UNL1        0.0439
     20 H           1.0101    1.8257    4.1812 H       1  UNL1        0.0437
     21 H           1.0101    0.0838    4.0445 H       1  UNL1        0.0437
     22 H          -1.1565    0.2015    3.0655 H       1  UNL1        0.1220
     23 H          -1.4433   -0.0601    5.4728 H       1  UNL1        0.0437
     24 H          -2.0769    1.2710    5.6265 H       1  UNL1        0.0437
     25 H           4.0009    2.1034    3.5560 H       1  UNL1        0.0439
     26 H           3.4348    3.2128    2.6250 H       1  UNL1        0.0439
     27 H           4.9968    1.2936   -0.2061 H       1  UNL1        0.0293
     28 H           4.9968    0.3043    1.2341 H       1  UNL1        0.0293
     29 H           5.4849    3.3168    1.1837 H       1  UNL1        0.0424
     30 H           5.6495    2.7186    2.4988 H       1  UNL1        0.0424
     31 H           0.2812   -1.9867   -0.3891 H       1  UNL1        0.1219
@<TRIPOS>BOND
     1     1     2    1
     2     2     3    1
     3     3     4    1
     4     4     5    1
     5     5     6    1
     6     6     7    1
     7     7     8    1
     8     8     9    1
     9     4     9    1
    10     3    10    1
    11    10    11    1
    12    11    12    1
    13     1    12    1
    14     1    13    1
    15     1    14    1
    16     2    15    1
    17     2    16    1
    18     3    17    1
    19     5    18    1
    20     5    19    1
    21     6    20    1
    22     6    21    1
    23     7    22    1
    24     8    23    1
    25     8    24    1
    26     9    25    1
    27     9    26    1
    28    10    27    1
    29    10    28    1
    30    11    29    1
    31    11    30    1
    32    12    31    1
