@<TRIPOS>MOLECULE
*****
 34 35 0 0 0
SMALL
GASTEIGER

@<TRIPOS>ATOM
      1 C           0.9096   -0.0111   -0.0414 C.3     1  UNL1       -0.0524
      2 C           2.4296   -0.0111   -0.0414 C.3     1  UNL1       -0.0038
      3 N           2.9196    1.3227    0.3350 N.3     1  UNL1       -0.2996
      4 C           4.3896    1.3227    0.3350 C.3     1  UNL1        0.0147
      5 C           4.8963    2.7019    0.7243 C.3     1  UNL1        0.0250
      6 N           6.3663    2.7019    0.7243 N.pl3   1  UNL1       -0.3275
      7 C           7.1013    1.4767    0.3785 C.ar    1  UNL1        0.0298
      8 C           6.3812    0.2764    0.0397 C.ar    1  UNL1       -0.0400
      9 C           7.1013   -0.9240   -0.2990 C.ar    1  UNL1       -0.0498
     10 C           6.3812   -2.1244   -0.6378 C.ar    1  UNL1        0.0143
     11 C           4.8612   -2.1244   -0.6378 C.2     1  UNL1        0.1502
     12 O           4.2257   -1.0651   -0.3388 O.2     1  UNL1       -0.2957
     13 C           7.1013   -3.3247   -0.9765 C.ar    1  UNL1       -0.0498
     14 C           8.5415    1.4767    0.3785 C.ar    1  UNL1       -0.0400
     15 C           7.1013    3.9271    1.0700 C.3     1  UNL1        0.0250
     16 C           2.4296    1.6637    1.6784 C.3     1  UNL1        0.0147
     17 H           0.5530   -0.9820   -0.3154 H       1  UNL1        0.0242
     18 H           0.5530    0.7116   -0.7452 H       1  UNL1        0.0242
     19 H           0.5530    0.2371    0.9364 H       1  UNL1        0.0242
     20 H           2.7863   -0.2592   -1.0192 H       1  UNL1        0.0424
     21 H           2.7863   -0.7338    0.6624 H       1  UNL1        0.0424
     22 H           4.7463    1.0746   -0.6428 H       1  UNL1        0.0442
     23 H           4.7463    0.6000    1.0389 H       1  UNL1        0.0442
     24 H           4.5396    2.9501    1.7021 H       1  UNL1        0.0476
     25 H           4.5396    3.4247    0.0205 H       1  UNL1        0.0476
     26 H           5.3492    0.2764    0.0397 H       1  UNL1        0.0636
     27 H           8.1333   -0.9240   -0.2990 H       1  UNL1        0.0625
     28 H           4.3452   -2.9845   -0.8805 H       1  UNL1        0.1081
     29 H           7.2262   -4.3106   -1.2548 H       1  UNL1        0.0625
     30 H           9.3662    2.0738    0.5470 H       1  UNL1        0.0636
     31 H           7.2797    4.7169    0.3705 H       1  UNL1        0.0476
     32 H           7.9520    4.2935    1.6057 H       1  UNL1        0.0476
     33 H           1.5725    2.3001    1.7500 H       1  UNL1        0.0442
     34 H           2.0843    1.0185    2.4591 H       1  UNL1        0.0442
@<TRIPOS>BOND
     1     1     2    1
     2     2     3    1
     3     3     4    1
     4     4     5    1
     5     5     6    1
     6     6     7    1
     7     7     8   ar
     8     8     9   ar
     9     9    10   ar
    10    10    11    1
    11    11    12    2
    12    10    13   ar
    13    13    14   ar
    14     7    14   ar
    15     6    15    1
    16    15    16    1
    17     3    16    1
    18     1    17    1
    19     1    18    1
    20     1    19    1
    21     2    20    1
    22     2    21    1
    23     4    22    1
    24     4    23    1
    25     5    24    1
    26     5    25    1
    27     8    26    1
    28     9    27    1
    29    11    28    1
    30    13    29    1
    31    14    30    1
    32    15    31    1
    33    15    32    1
    34    16    33    1
    35    16    34    1
