@<TRIPOS>MOLECULE
*****
 37 36 0 0 0
SMALL
GASTEIGER

@<TRIPOS>ATOM
      1 C           0.9349   -0.0153   -0.0744 C.3     1  UNL1        0.0121
      2 C           2.4549   -0.0153   -0.0744 C.2     1  UNL1        0.2100
      3 O           3.0904    0.5992    0.8388 O.2     1  UNL1       -0.2761
      4 N           3.1899   -0.7260   -1.1306 N.am    1  UNL1       -0.3133
      5 C           4.6599   -0.7260   -1.1306 C.3     1  UNL1        0.0350
      6 C           5.1666   -1.5260   -2.3195 C.3     1  UNL1        0.0632
      7 O           6.5866   -1.5260   -2.3195 O.3     1  UNL1       -0.3760
      8 C           7.0599   -2.2734   -3.4303 C.3     1  UNL1        0.0711
      9 C           8.5799   -2.2734   -3.4303 C.3     1  UNL1        0.0711
     10 O           9.0532   -3.0208   -4.5410 O.3     1  UNL1       -0.3752
     11 C          10.4732   -3.0208   -4.5410 C.3     1  UNL1        0.0711
     12 C          10.9799   -3.8209   -5.7300 C.3     1  UNL1        0.0711
     13 O          12.3999   -3.8209   -5.7300 O.3     1  UNL1       -0.3752
     14 C          12.8732   -4.5683   -6.8407 C.3     1  UNL1        0.0708
     15 C          14.3932   -4.5683   -6.8407 C.3     1  UNL1        0.0676
     16 O          14.8666   -5.3157   -7.9515 O.3     1  UNL1       -0.3927
     17 H           0.5783    0.5479    0.7626 H       1  UNL1        0.0322
     18 H           0.5783   -1.0217   -0.0051 H       1  UNL1        0.0322
     19 H           0.5783    0.4280   -0.9806 H       1  UNL1        0.0322
     20 H           2.6977   -1.2020   -1.8380 H       1  UNL1        0.1488
     21 H           5.0166   -1.1692   -0.2244 H       1  UNL1        0.0484
     22 H           5.0166    0.2804   -1.1998 H       1  UNL1        0.0484
     23 H           4.8099   -1.0828   -3.2258 H       1  UNL1        0.0575
     24 H           4.8099   -2.5324   -2.2503 H       1  UNL1        0.0575
     25 H           6.7033   -1.8302   -4.3365 H       1  UNL1        0.0583
     26 H           6.7032   -3.2799   -3.3610 H       1  UNL1        0.0583
     27 H           8.9366   -2.7167   -2.5241 H       1  UNL1        0.0583
     28 H           8.9366   -1.2670   -3.4995 H       1  UNL1        0.0583
     29 H          10.8299   -3.4641   -3.6348 H       1  UNL1        0.0583
     30 H          10.8299   -2.0144   -4.6103 H       1  UNL1        0.0583
     31 H          10.6232   -3.3776   -6.6362 H       1  UNL1        0.0583
     32 H          10.6232   -4.8273   -5.6607 H       1  UNL1        0.0583
     33 H          12.5166   -4.1250   -7.7469 H       1  UNL1        0.0583
     34 H          12.5166   -5.5747   -6.7715 H       1  UNL1        0.0583
     35 H          14.7499   -5.0115   -5.9345 H       1  UNL1        0.0580
     36 H          14.7499   -3.5619   -6.9100 H       1  UNL1        0.0580
     37 H          14.5432   -6.2281   -7.8887 H       1  UNL1        0.2095
@<TRIPOS>BOND
     1     1     2    1
     2     2     3    2
     3     2     4   am
     4     4     5    1
     5     5     6    1
     6     6     7    1
     7     7     8    1
     8     8     9    1
     9     9    10    1
    10    10    11    1
    11    11    12    1
    12    12    13    1
    13    13    14    1
    14    14    15    1
    15    15    16    1
    16     1    17    1
    17     1    18    1
    18     1    19    1
    19     4    20    1
    20     5    21    1
    21     5    22    1
    22     6    23    1
    23     6    24    1
    24     8    25    1
    25     8    26    1
    26     9    27    1
    27     9    28    1
    28    11    29    1
    29    11    30    1
    30    12    31    1
    31    12    32    1
    32    14    33    1
    33    14    34    1
    34    15    35    1
    35    15    36    1
    36    16    37    1
