@<TRIPOS>MOLECULE
*****
 23 22 0 0 0
SMALL
GASTEIGER

@<TRIPOS>ATOM
      1 C           1.0876    0.0016   -0.0482 C.3     1  UNL1        0.0365
      2 O           2.5076    0.0016   -0.0482 O.3     1  UNL1       -0.3807
      3 C           2.9809    0.5819    1.1583 C.3     1  UNL1        0.0706
      4 C           4.5009    0.5819    1.1583 C.3     1  UNL1        0.0711
      5 O           4.9743    1.1622    2.3648 O.3     1  UNL1       -0.3752
      6 C           6.3943    1.1622    2.3648 C.3     1  UNL1        0.0711
      7 C           6.9009    1.7833    3.6562 C.3     1  UNL1        0.0706
      8 O           8.3209    1.7833    3.6562 O.3     1  UNL1       -0.3807
      9 C           8.7942    2.3636    4.8627 C.3     1  UNL1        0.0365
     10 H           0.7309   -0.4356   -0.9573 H       1  UNL1        0.0524
     11 H           0.7309    1.0076    0.0277 H       1  UNL1        0.0524
     12 H           0.7309   -0.5671    0.7850 H       1  UNL1        0.0524
     13 H           2.6243    0.0132    1.9915 H       1  UNL1        0.0582
     14 H           2.6243    1.5878    1.2342 H       1  UNL1        0.0582
     15 H           4.8576    1.1506    0.3251 H       1  UNL1        0.0583
     16 H           4.8576   -0.4240    1.0824 H       1  UNL1        0.0583
     17 H           6.7509    1.7309    1.5316 H       1  UNL1        0.0583
     18 H           6.7509    0.1562    2.2889 H       1  UNL1        0.0583
     19 H           6.5442    1.2146    4.4895 H       1  UNL1        0.0582
     20 H           6.5442    2.7893    3.7321 H       1  UNL1        0.0582
     21 H           9.8642    2.3636    4.8627 H       1  UNL1        0.0524
     22 H           8.4376    1.7949    5.6960 H       1  UNL1        0.0524
     23 H           8.4376    3.3696    4.9386 H       1  UNL1        0.0524
@<TRIPOS>BOND
     1     1     2    1
     2     2     3    1
     3     3     4    1
     4     4     5    1
     5     5     6    1
     6     6     7    1
     7     7     8    1
     8     8     9    1
     9     1    10    1
    10     1    11    1
    11     1    12    1
    12     3    13    1
    13     3    14    1
    14     4    15    1
    15     4    16    1
    16     6    17    1
    17     6    18    1
    18     7    19    1
    19     7    20    1
    20     9    21    1
    21     9    22    1
    22     9    23    1
