@<TRIPOS>MOLECULE
*****
 42 42 0 0 0
SMALL
GASTEIGER

@<TRIPOS>ATOM
      1 C           1.0221   -0.0951    0.0216 C.3     1  UNL1       -0.0416
      2 C           2.5421   -0.0951    0.0216 C.3     1  UNL1        0.0449
      3 O           3.0154    0.1139    1.3440 O.3     1  UNL1       -0.3778
      4 C           4.4354    0.1139    1.3440 C.3     1  UNL1        0.0710
      5 C           4.9421    0.3377    2.7595 C.3     1  UNL1        0.0711
      6 O           6.3621    0.3377    2.7595 O.3     1  UNL1       -0.3752
      7 C           6.8354    0.5467    4.0819 C.3     1  UNL1        0.0711
      8 C           8.3554    0.5467    4.0819 C.3     1  UNL1        0.0711
      9 O           8.8287    0.7557    5.4043 O.3     1  UNL1       -0.3757
     10 C          10.2487    0.7557    5.4043 C.3     1  UNL1        0.0673
     11 C          10.7554    0.9794    6.8198 C.3     1  UNL1        0.0665
     12 N          12.2254    0.9794    6.8198 N.ar    1  UNL1       -0.2492
     13 C          12.9218    1.1677    8.0112 C.ar    1  UNL1        0.0503
     14 C          14.3620    1.1677    8.0112 C.ar    1  UNL1        0.0998
     15 C          15.1220    0.9622    6.7110 C.3     1  UNL1        0.0570
     16 N          14.1668    0.7878    5.6074 N.am    1  UNL1       -0.3122
     17 C          14.6567    0.5714    4.2384 C.2     1  UNL1        0.2003
     18 O          13.8309    0.4206    3.2843 O.2     1  UNL1       -0.2795
     19 N          15.0584    1.3561    9.2026 N.ar    1  UNL1       -0.1329
     20 N          12.8981    0.7975    5.6689 N.ar    1  UNL1       -0.0653
     21 H           0.6654   -0.2526   -0.9748 H       1  UNL1        0.0252
     22 H           0.6654    0.8466    0.3835 H       1  UNL1        0.0252
     23 H           0.6654   -0.8793    0.6563 H       1  UNL1        0.0252
     24 H           2.8988    0.6891   -0.6130 H       1  UNL1        0.0557
     25 H           2.8988   -1.0368   -0.3402 H       1  UNL1        0.0557
     26 H           4.7921    0.8981    0.7094 H       1  UNL1        0.0583
     27 H           4.7921   -0.8278    0.9822 H       1  UNL1        0.0583
     28 H           4.5854   -0.4465    3.3941 H       1  UNL1        0.0583
     29 H           4.5854    1.2793    3.1213 H       1  UNL1        0.0583
     30 H           6.4787   -0.2375    4.7165 H       1  UNL1        0.0583
     31 H           6.4787    1.4884    4.4437 H       1  UNL1        0.0583
     32 H           8.7121    1.3309    3.4473 H       1  UNL1        0.0583
     33 H           8.7121   -0.3950    3.7201 H       1  UNL1        0.0583
     34 H          10.6054    1.5399    4.7697 H       1  UNL1        0.0578
     35 H          10.6054   -0.1860    5.0424 H       1  UNL1        0.0578
     36 H          10.3987    0.1952    7.4544 H       1  UNL1        0.0532
     37 H          10.3987    1.9211    7.1816 H       1  UNL1        0.0532
     38 H          12.4058    1.3073    8.8940 H       1  UNL1        0.0846
     39 H          15.7372    0.0904    6.7914 H       1  UNL1        0.0528
     40 H          15.7372    1.8163    6.5186 H       1  UNL1        0.0528
     41 H          13.1988    0.8159    5.7851 H       1  UNL1        0.1488
     42 H          15.6714    0.5420    4.0522 H       1  UNL1        0.1251
@<TRIPOS>BOND
     1     1     2    1
     2     2     3    1
     3     3     4    1
     4     4     5    1
     5     5     6    1
     6     6     7    1
     7     7     8    1
     8     8     9    1
     9     9    10    1
    10    10    11    1
    11    11    12    1
    12    12    13   ar
    13    13    14   ar
    14    14    15    1
    15    15    16    1
    16    16    17   am
    17    17    18    2
    18    14    19   ar
    19    19    20   ar
    20    12    20   ar
    21     1    21    1
    22     1    22    1
    23     1    23    1
    24     2    24    1
    25     2    25    1
    26     4    26    1
    27     4    27    1
    28     5    28    1
    29     5    29    1
    30     7    30    1
    31     7    31    1
    32     8    32    1
    33     8    33    1
    34    10    34    1
    35    10    35    1
    36    11    36    1
    37    11    37    1
    38    13    38    1
    39    15    39    1
    40    15    40    1
    41    16    41    1
    42    17    42    1
