@<TRIPOS>MOLECULE
*****
 35 34 0 0 0
SMALL
GASTEIGER

@<TRIPOS>ATOM
      1 C           0.9562   -0.0027   -0.0899 C.3     1  UNL1       -0.0652
      2 C           2.4762   -0.0027   -0.0899 C.3     1  UNL1       -0.0538
      3 C           2.9829   -1.2020   -0.8742 C.3     1  UNL1       -0.0297
      4 C           4.5029   -1.2020   -0.8742 C.3     1  UNL1        0.0477
      5 O           4.9762   -2.3225   -1.6070 O.3     1  UNL1       -0.3798
      6 C           6.3962   -2.3225   -1.6070 C.3     1  UNL1        0.0477
      7 C           6.9029   -3.5218   -2.3914 C.3     1  UNL1       -0.0274
      8 C           8.4229   -3.5218   -2.3914 C.3     1  UNL1       -0.0274
      9 C           8.9295   -4.7212   -3.1758 C.3     1  UNL1        0.0484
     10 O          10.3495   -4.7212   -3.1758 O.3     1  UNL1       -0.3706
     11 C          10.8228   -5.8416   -3.9086 C.3     1  UNL1        0.1234
     12 C          12.3428   -5.8416   -3.9086 C.2     1  UNL1        0.2363
     13 N          13.0778   -4.7762   -3.2118 N.am    1  UNL1       -0.3274
     14 O          12.9783   -6.7627   -4.5110 O.2     1  UNL1       -0.2735
     15 H           0.5995    0.8416    0.4623 H       1  UNL1        0.0230
     16 H           0.5995   -0.9030    0.3652 H       1  UNL1        0.0230
     17 H           0.5995    0.0534   -1.0971 H       1  UNL1        0.0230
     18 H           2.8329   -0.0587    0.9174 H       1  UNL1        0.0263
     19 H           2.8329    0.8977   -0.5449 H       1  UNL1        0.0263
     20 H           2.6262   -1.1460   -1.8815 H       1  UNL1        0.0287
     21 H           2.6262   -2.1023   -0.4192 H       1  UNL1        0.0287
     22 H           4.8595   -1.2581    0.1330 H       1  UNL1        0.0560
     23 H           4.8595   -0.3017   -1.3293 H       1  UNL1        0.0560
     24 H           6.7529   -2.3785   -0.5998 H       1  UNL1        0.0560
     25 H           6.7529   -1.4221   -2.0621 H       1  UNL1        0.0560
     26 H           6.5462   -3.4658   -3.3986 H       1  UNL1        0.0288
     27 H           6.5462   -4.4221   -1.9363 H       1  UNL1        0.0288
     28 H           8.7795   -3.5779   -1.3841 H       1  UNL1        0.0288
     29 H           8.7795   -2.6215   -2.8465 H       1  UNL1        0.0288
     30 H           8.5728   -4.6651   -4.1830 H       1  UNL1        0.0560
     31 H           8.5728   -5.6215   -2.7207 H       1  UNL1        0.0560
     32 H          10.4662   -5.7856   -4.9158 H       1  UNL1        0.0656
     33 H          10.4662   -6.7419   -3.4535 H       1  UNL1        0.0656
     34 H          12.5856   -4.0626   -2.7451 H       1  UNL1        0.1450
     35 H          14.0623   -4.7762   -3.2118 H       1  UNL1        0.1450
@<TRIPOS>BOND
     1     1     2    1
     2     2     3    1
     3     3     4    1
     4     4     5    1
     5     5     6    1
     6     6     7    1
     7     7     8    1
     8     8     9    1
     9     9    10    1
    10    10    11    1
    11    11    12    1
    12    12    13   am
    13    12    14    2
    14     1    15    1
    15     1    16    1
    16     1    17    1
    17     2    18    1
    18     2    19    1
    19     3    20    1
    20     3    21    1
    21     4    22    1
    22     4    23    1
    23     6    24    1
    24     6    25    1
    25     7    26    1
    26     7    27    1
    27     8    28    1
    28     8    29    1
    29     9    30    1
    30     9    31    1
    31    11    32    1
    32    11    33    1
    33    13    34    1
    34    13    35    1
