@<TRIPOS>MOLECULE
*****
 45 44 0 0 0
SMALL
GASTEIGER

@<TRIPOS>ATOM
      1 C           0.9099   -0.0186    0.0392 C.3     1  UNL1       -0.0570
      2 C           2.4299   -0.0186    0.0392 C.3     1  UNL1        0.0211
      3 C           2.9366   -1.3528    0.5622 C.2     1  UNL1        0.2128
      4 O           2.1107   -2.2522    0.9147 O.2     1  UNL1       -0.2758
      5 N           4.3818   -1.6029    0.6602 N.am    1  UNL1       -0.3131
      6 C           4.8718   -2.8933    1.1659 C.3     1  UNL1        0.0350
      7 C           6.3918   -2.8933    1.1659 C.3     1  UNL1        0.0632
      8 O           6.8651   -4.1397    1.6545 O.3     1  UNL1       -0.3760
      9 C           8.2851   -4.1397    1.6545 C.3     1  UNL1        0.0711
     10 C           8.7918   -5.4740    2.1775 C.3     1  UNL1        0.0711
     11 O          10.2118   -5.4740    2.1775 O.3     1  UNL1       -0.3752
     12 C          10.6851   -6.7205    2.6660 C.3     1  UNL1        0.0711
     13 C          12.2051   -6.7205    2.6660 C.3     1  UNL1        0.0711
     14 O          12.6785   -7.9669    3.1546 O.3     1  UNL1       -0.3752
     15 C          14.0985   -7.9669    3.1546 C.3     1  UNL1        0.0711
     16 C          14.6051   -9.3012    3.6775 C.3     1  UNL1        0.0715
     17 O          16.0251   -9.3012    3.6775 O.3     1  UNL1       -0.3703
     18 C          16.4984  -10.5476    4.1661 C.3     1  UNL1        0.1028
     19 C          18.0184  -10.5476    4.1661 C.2     1  UNL1        0.1458
     20 O          18.6539  -11.5724    4.5677 O.2     1  UNL1       -0.2986
     21 H           0.5532    0.9207   -0.3289 H       1  UNL1        0.0234
     22 H           0.5532   -0.1694    1.0367 H       1  UNL1        0.0234
     23 H           0.5532   -0.8070   -0.5901 H       1  UNL1        0.0234
     24 H           2.7866    0.7698    0.6685 H       1  UNL1        0.0356
     25 H           2.7866    0.1322   -0.9583 H       1  UNL1        0.0356
     26 H           5.0216   -0.9062    0.3871 H       1  UNL1        0.1488
     27 H           4.5151   -3.6817    0.5366 H       1  UNL1        0.0484
     28 H           4.5151   -3.0441    2.1634 H       1  UNL1        0.0484
     29 H           6.7485   -2.1048    1.7953 H       1  UNL1        0.0575
     30 H           6.7485   -2.7425    0.1685 H       1  UNL1        0.0575
     31 H           8.6418   -3.3513    2.2838 H       1  UNL1        0.0583
     32 H           8.6418   -3.9889    0.6570 H       1  UNL1        0.0583
     33 H           8.4351   -6.2624    1.5481 H       1  UNL1        0.0583
     34 H           8.4351   -5.6248    3.1749 H       1  UNL1        0.0583
     35 H          10.3285   -7.5089    2.0367 H       1  UNL1        0.0583
     36 H          10.3285   -6.8713    3.6635 H       1  UNL1        0.0583
     37 H          12.5618   -5.9320    3.2954 H       1  UNL1        0.0583
     38 H          12.5618   -6.5696    1.6685 H       1  UNL1        0.0583
     39 H          14.4551   -7.1785    3.7839 H       1  UNL1        0.0583
     40 H          14.4551   -7.8161    2.1571 H       1  UNL1        0.0583
     41 H          14.2484  -10.0896    3.0482 H       1  UNL1        0.0583
     42 H          14.2484   -9.4520    4.6750 H       1  UNL1        0.0583
     43 H          16.1418  -11.3361    3.5368 H       1  UNL1        0.0636
     44 H          16.1418  -10.6984    5.1636 H       1  UNL1        0.0636
     45 H          18.5344   -9.7155    3.8399 H       1  UNL1        0.1051
@<TRIPOS>BOND
     1     1     2    1
     2     2     3    1
     3     3     4    2
     4     3     5   am
     5     5     6    1
     6     6     7    1
     7     7     8    1
     8     8     9    1
     9     9    10    1
    10    10    11    1
    11    11    12    1
    12    12    13    1
    13    13    14    1
    14    14    15    1
    15    15    16    1
    16    16    17    1
    17    17    18    1
    18    18    19    1
    19    19    20    2
    20     1    21    1
    21     1    22    1
    22     1    23    1
    23     2    24    1
    24     2    25    1
    25     5    26    1
    26     6    27    1
    27     6    28    1
    28     7    29    1
    29     7    30    1
    30     9    31    1
    31     9    32    1
    32    10    33    1
    33    10    34    1
    34    12    35    1
    35    12    36    1
    36    13    37    1
    37    13    38    1
    38    15    39    1
    39    15    40    1
    40    16    41    1
    41    16    42    1
    42    18    43    1
    43    18    44    1
    44    19    45    1
