@<TRIPOS>MOLECULE
*****
 22 21 0 0 0
SMALL
GASTEIGER

@<TRIPOS>ATOM
      1 C           1.0916   -0.0180   -0.0358 C.3     1  UNL1        0.0364
      2 O           2.5116   -0.0180   -0.0358 O.3     1  UNL1       -0.3830
      3 C           2.9849    0.9709    0.8666 C.3     1  UNL1        0.0473
      4 C           4.5049    0.9709    0.8666 C.3     1  UNL1       -0.0294
      5 C           5.0116    2.0295    1.8326 C.3     1  UNL1       -0.0489
      6 C           6.5316    2.0295    1.8326 C.3     1  UNL1       -0.0296
      7 C           7.0383    3.0880    2.7986 C.3     1  UNL1        0.0442
      8 O           8.4583    3.0880    2.7986 O.3     1  UNL1       -0.3950
      9 H           0.7350   -0.7631   -0.7158 H       1  UNL1        0.0523
     10 H           0.7349    0.9435   -0.3412 H       1  UNL1        0.0523
     11 H           0.7349   -0.2343    0.9495 H       1  UNL1        0.0523
     12 H           2.6283    0.7546    1.8520 H       1  UNL1        0.0560
     13 H           2.6283    1.9324    0.5613 H       1  UNL1        0.0560
     14 H           4.8616    1.1873   -0.1187 H       1  UNL1        0.0287
     15 H           4.8616    0.0094    1.1719 H       1  UNL1        0.0287
     16 H           4.6549    1.8132    2.8180 H       1  UNL1        0.0267
     17 H           4.6549    2.9910    1.5273 H       1  UNL1        0.0267
     18 H           6.8883    2.2458    0.8473 H       1  UNL1        0.0287
     19 H           6.8883    1.0680    2.1379 H       1  UNL1        0.0287
     20 H           6.6816    2.8717    3.7840 H       1  UNL1        0.0557
     21 H           6.6816    4.0495    2.4933 H       1  UNL1        0.0557
     22 H           8.7816    2.2164    3.0754 H       1  UNL1        0.2094
@<TRIPOS>BOND
     1     1     2    1
     2     2     3    1
     3     3     4    1
     4     4     5    1
     5     5     6    1
     6     6     7    1
     7     7     8    1
     8     1     9    1
     9     1    10    1
    10     1    11    1
    11     3    12    1
    12     3    13    1
    13     4    14    1
    14     4    15    1
    15     5    16    1
    16     5    17    1
    17     6    18    1
    18     6    19    1
    19     7    20    1
    20     7    21    1
    21     8    22    1
