@<TRIPOS>MOLECULE
*****
 25 24 0 0 0
SMALL
GASTEIGER

@<TRIPOS>ATOM
      1 C           1.0051    0.0952    0.0302 C.3     1  UNL1       -0.0653
      2 C           2.5251    0.0952    0.0302 C.3     1  UNL1       -0.0559
      3 C           3.0318   -0.4151    1.3694 C.3     1  UNL1       -0.0533
      4 C           4.5518   -0.4151    1.3694 C.3     1  UNL1       -0.0530
      5 C           5.0584   -0.9254    2.7085 C.3     1  UNL1       -0.0519
      6 C           6.5784   -0.9254    2.7085 C.3     1  UNL1       -0.0406
      7 C           7.0851   -1.4356    4.0477 C.3     1  UNL1       -0.0069
      8 N           8.5551   -1.4356    4.0477 N.3     1  UNL1       -0.3300
      9 H           0.6484    0.4544   -0.9125 H       1  UNL1        0.0230
     10 H           0.6484    0.7320    0.8126 H       1  UNL1        0.0230
     11 H           0.6484   -0.9008    0.1905 H       1  UNL1        0.0230
     12 H           2.8818    1.0912   -0.1301 H       1  UNL1        0.0263
     13 H           2.8818   -0.5416   -0.7522 H       1  UNL1        0.0263
     14 H           2.6751   -1.4111    1.5296 H       1  UNL1        0.0265
     15 H           2.6751    0.2217    2.1518 H       1  UNL1        0.0265
     16 H           4.9084    0.5809    1.2091 H       1  UNL1        0.0265
     17 H           4.9084   -1.0519    0.5869 H       1  UNL1        0.0265
     18 H           4.7018   -1.9213    2.8688 H       1  UNL1        0.0266
     19 H           4.7018   -0.2886    3.4909 H       1  UNL1        0.0266
     20 H           6.9351    0.0706    2.5482 H       1  UNL1        0.0277
     21 H           6.9351   -1.5621    1.9261 H       1  UNL1        0.0277
     22 H           6.7284   -2.4316    4.2079 H       1  UNL1        0.0422
     23 H           6.7284   -0.7988    4.8301 H       1  UNL1        0.0422
     24 H           8.8951   -2.0427    3.3018 H       1  UNL1        0.1182
     25 H           8.8951   -1.7780    4.9463 H       1  UNL1        0.1182
@<TRIPOS>BOND
     1     1     2    1
     2     2     3    1
     3     3     4    1
     4     4     5    1
     5     5     6    1
     6     6     7    1
     7     7     8    1
     8     1     9    1
     9     1    10    1
    10     1    11    1
    11     2    12    1
    12     2    13    1
    13     3    14    1
    14     3    15    1
    15     4    16    1
    16     4    17    1
    17     5    18    1
    18     5    19    1
    19     6    20    1
    20     6    21    1
    21     7    22    1
    22     7    23    1
    23     8    24    1
    24     8    25    1
