@<TRIPOS>MOLECULE
*****
 26 25 0 0 0
SMALL
GASTEIGER

@<TRIPOS>ATOM
      1 C           0.9796   -0.0852   -0.0482 C.3     1  UNL1       -0.0131
      2 N           2.4496   -0.0852   -0.0482 N.3     1  UNL1       -0.3083
      3 C           2.9396   -0.3610   -1.4064 C.3     1  UNL1       -0.0131
      4 C           2.9395    1.2290    0.3920 C.3     1  UNL1       -0.0017
      5 C           4.4595    1.2290    0.3920 C.3     1  UNL1       -0.0402
      6 C           4.9662    2.5878    0.8472 C.3     1  UNL1       -0.0498
      7 C           6.4862    2.5878    0.8472 C.3     1  UNL1       -0.0297
      8 C           6.9929    3.9467    1.3023 C.3     1  UNL1        0.0442
      9 O           8.4129    3.9467    1.3023 O.3     1  UNL1       -0.3950
     10 H           0.6229   -1.0418   -0.3686 H       1  UNL1        0.0391
     11 H           0.6229    0.6706   -0.7164 H       1  UNL1        0.0391
     12 H           0.6229    0.1156    0.9404 H       1  UNL1        0.0391
     13 H           2.5829   -1.3176   -1.7268 H       1  UNL1        0.0391
     14 H           4.0096   -0.3610   -1.4064 H       1  UNL1        0.0391
     15 H           2.5829    0.3947   -2.0746 H       1  UNL1        0.0391
     16 H           2.5829    1.4298    1.3806 H       1  UNL1        0.0426
     17 H           2.5829    1.9847   -0.2762 H       1  UNL1        0.0426
     18 H           4.8162    1.0282   -0.5966 H       1  UNL1        0.0278
     19 H           4.8162    0.4732    1.0602 H       1  UNL1        0.0278
     20 H           4.6095    2.7886    1.8358 H       1  UNL1        0.0266
     21 H           4.6095    3.3436    0.1790 H       1  UNL1        0.0266
     22 H           6.8429    2.3870   -0.1415 H       1  UNL1        0.0287
     23 H           6.8429    1.8321    1.5154 H       1  UNL1        0.0287
     24 H           6.6362    4.1475    2.2910 H       1  UNL1        0.0557
     25 H           6.6362    4.7025    0.6342 H       1  UNL1        0.0557
     26 H           8.7362    3.2616    1.9081 H       1  UNL1        0.2094
@<TRIPOS>BOND
     1     1     2    1
     2     2     3    1
     3     2     4    1
     4     4     5    1
     5     5     6    1
     6     6     7    1
     7     7     8    1
     8     8     9    1
     9     1    10    1
    10     1    11    1
    11     1    12    1
    12     3    13    1
    13     3    14    1
    14     3    15    1
    15     4    16    1
    16     4    17    1
    17     5    18    1
    18     5    19    1
    19     6    20    1
    20     6    21    1
    21     7    22    1
    22     7    23    1
    23     8    24    1
    24     8    25    1
    25     9    26    1
