@<TRIPOS>MOLECULE
*****
 23 22 0 0 0
SMALL
GASTEIGER

@<TRIPOS>ATOM
      1 C           1.0308    0.0495   -0.0812 C.3     1  UNL1       -0.0416
      2 C           2.5508    0.0495   -0.0812 C.3     1  UNL1        0.0449
      3 O           3.0241    1.0286   -0.9943 O.3     1  UNL1       -0.3778
      4 C           4.4441    1.0286   -0.9943 C.3     1  UNL1        0.0710
      5 C           4.9508    2.0766   -1.9717 C.3     1  UNL1        0.0716
      6 O           6.3708    2.0766   -1.9717 O.3     1  UNL1       -0.3683
      7 C           6.8441    3.0557   -2.8848 C.3     1  UNL1        0.1235
      8 C           8.3641    3.0557   -2.8848 C.2     1  UNL1        0.2363
      9 N           9.0991    2.1247   -2.0166 N.am    1  UNL1       -0.3274
     10 O           8.9996    3.8606   -3.6355 O.2     1  UNL1       -0.2735
     11 H           0.6741   -0.6882    0.6068 H       1  UNL1        0.0252
     12 H           0.6741   -0.1775   -1.0642 H       1  UNL1        0.0252
     13 H           0.6741    1.0143    0.2137 H       1  UNL1        0.0252
     14 H           2.9075   -0.9152   -0.3761 H       1  UNL1        0.0557
     15 H           2.9075    0.2765    0.9017 H       1  UNL1        0.0557
     16 H           4.8008    0.0639   -1.2892 H       1  UNL1        0.0583
     17 H           4.8008    1.2556   -0.0114 H       1  UNL1        0.0583
     18 H           4.5941    3.0414   -1.6768 H       1  UNL1        0.0583
     19 H           4.5941    1.8497   -2.9547 H       1  UNL1        0.0583
     20 H           6.4874    4.0205   -2.5899 H       1  UNL1        0.0656
     21 H           6.4874    2.8287   -3.8678 H       1  UNL1        0.0656
     22 H           8.6069    1.5012   -1.4351 H       1  UNL1        0.1450
     23 H          10.0836    2.1247   -2.0166 H       1  UNL1        0.1450
@<TRIPOS>BOND
     1     1     2    1
     2     2     3    1
     3     3     4    1
     4     4     5    1
     5     5     6    1
     6     6     7    1
     7     7     8    1
     8     8     9   am
     9     8    10    2
    10     1    11    1
    11     1    12    1
    12     1    13    1
    13     2    14    1
    14     2    15    1
    15     4    16    1
    16     4    17    1
    17     5    18    1
    18     5    19    1
    19     7    20    1
    20     7    21    1
    21     9    22    1
    22     9    23    1
