@<TRIPOS>MOLECULE
*****
 17 16 0 0 0
SMALL
GASTEIGER

@<TRIPOS>ATOM
      1 C           1.0114    0.0687   -0.0717 C.3     1  UNL1       -0.0653
      2 C           2.5314    0.0687   -0.0717 C.3     1  UNL1       -0.0559
      3 C           3.0380   -1.0114   -1.0135 C.3     1  UNL1       -0.0536
      4 C           4.5580   -1.0114   -1.0135 C.3     1  UNL1       -0.0559
      5 C           5.0647   -2.0916   -1.9553 C.3     1  UNL1       -0.0653
      6 H           0.6547    0.8291    0.5912 H       1  UNL1        0.0230
      7 H           0.6547   -0.8856    0.2553 H       1  UNL1        0.0230
      8 H           0.6547    0.2627   -1.0617 H       1  UNL1        0.0230
      9 H           2.8880   -0.1252    0.9183 H       1  UNL1        0.0263
     10 H           2.8880    1.0231   -0.3988 H       1  UNL1        0.0263
     11 H           2.6814   -0.8175   -2.0035 H       1  UNL1        0.0265
     12 H           2.6814   -1.9658   -0.6865 H       1  UNL1        0.0265
     13 H           4.9147   -1.2054   -0.0235 H       1  UNL1        0.0263
     14 H           4.9147   -0.0571   -1.3405 H       1  UNL1        0.0263
     15 H           4.7080   -3.0459   -1.6282 H       1  UNL1        0.0230
     16 H           6.1347   -2.0916   -1.9553 H       1  UNL1        0.0230
     17 H           4.7080   -1.8976   -2.9453 H       1  UNL1        0.0230
@<TRIPOS>BOND
     1     1     2    1
     2     2     3    1
     3     3     4    1
     4     4     5    1
     5     1     6    1
     6     1     7    1
     7     1     8    1
     8     2     9    1
     9     2    10    1
    10     3    11    1
    11     3    12    1
    12     4    13    1
    13     4    14    1
    14     5    15    1
    15     5    16    1
    16     5    17    1
