@<TRIPOS>MOLECULE
*****
 31 31 0 0 0
SMALL
GASTEIGER

@<TRIPOS>ATOM
      1 C           0.9136    0.0504   -0.0000 C.3     1  UNL1       -0.0191
      2 C           2.4336    0.0504   -0.0000 C.ar    1  UNL1        0.0798
      3 C           3.1537   -1.1061    0.4670 C.ar    1  UNL1        0.0484
      4 N           4.5465   -1.1061    0.4670 N.ar    1  UNL1       -0.2515
      5 C           5.2815    0.0743   -0.0097 C.3     1  UNL1        0.0432
      6 C           4.2938    1.1456   -0.4423 C.3     1  UNL1       -0.0333
      7 C           5.0538    2.3662   -0.9352 C.3     1  UNL1       -0.0514
      8 C           4.0661    3.4374   -1.3678 C.3     1  UNL1       -0.0519
      9 C           4.8261    4.6580   -1.8607 C.3     1  UNL1       -0.0406
     10 C           3.8383    5.7293   -2.2933 C.3     1  UNL1       -0.0069
     11 N           4.5733    6.9097   -2.7700 N.3     1  UNL1       -0.3300
     12 N           5.2193   -2.1865    0.9033 N.ar    1  UNL1       -0.0655
     13 N           3.1300    1.1689   -0.4517 N.ar    1  UNL1       -0.1348
     14 H           0.5570   -0.8850    0.3777 H       1  UNL1        0.0294
     15 H           0.5570    0.1910   -0.9990 H       1  UNL1        0.0294
     16 H           0.5570    0.8452    0.6212 H       1  UNL1        0.0294
     17 H           2.6377   -1.9348    0.8017 H       1  UNL1        0.0845
     18 H           5.8967   -0.2003   -0.8410 H       1  UNL1        0.0509
     19 H           5.8967    0.4540    0.7792 H       1  UNL1        0.0509
     20 H           3.6786    1.4202    0.3890 H       1  UNL1        0.0283
     21 H           3.6786    0.7659   -1.2311 H       1  UNL1        0.0283
     22 H           5.6690    2.0916   -1.7665 H       1  UNL1        0.0266
     23 H           5.6690    2.7459   -0.1463 H       1  UNL1        0.0266
     24 H           3.4509    3.7120   -0.5365 H       1  UNL1        0.0266
     25 H           3.4509    3.0578   -2.1567 H       1  UNL1        0.0266
     26 H           5.4412    4.3835   -2.6920 H       1  UNL1        0.0277
     27 H           5.4412    5.0377   -1.0718 H       1  UNL1        0.0277
     28 H           3.2232    6.0039   -1.4620 H       1  UNL1        0.0422
     29 H           3.2231    5.3496   -3.0822 H       1  UNL1        0.0422
     30 H           5.1597    7.2717   -2.0180 H       1  UNL1        0.1182
     31 H           3.9105    7.6286   -3.0603 H       1  UNL1        0.1182
@<TRIPOS>BOND
     1     1     2    1
     2     2     3   ar
     3     3     4   ar
     4     4     5    1
     5     5     6    1
     6     6     7    1
     7     7     8    1
     8     8     9    1
     9     9    10    1
    10    10    11    1
    11     4    12   ar
    12    12    13   ar
    13     2    13   ar
    14     1    14    1
    15     1    15    1
    16     1    16    1
    17     3    17    1
    18     5    18    1
    19     5    19    1
    20     6    20    1
    21     6    21    1
    22     7    22    1
    23     7    23    1
    24     8    24    1
    25     8    25    1
    26     9    26    1
    27     9    27    1
    28    10    28    1
    29    10    29    1
    30    11    30    1
    31    11    31    1
