@<TRIPOS>MOLECULE
*****
 36 35 0 0 0
SMALL
GASTEIGER

@<TRIPOS>ATOM
      1 C           0.9761    0.0842    0.0483 C.3     1  UNL1       -0.0653
      2 C           2.4961    0.0842    0.0483 C.3     1  UNL1       -0.0559
      3 C           3.0028    1.4844   -0.2569 C.3     1  UNL1       -0.0519
      4 C           4.5228    1.4844   -0.2569 C.3     1  UNL1       -0.0374
      5 C           5.0294    2.8846   -0.5621 C.3     1  UNL1        0.0116
      6 N           6.4994    2.8846   -0.5621 N.am    1  UNL1       -0.3153
      7 C           7.2344    4.1284   -0.8333 C.2     1  UNL1        0.2130
      8 O           6.5990    5.2038   -1.0677 O.2     1  UNL1       -0.2758
      9 C           8.7544    4.1284   -0.8333 C.3     1  UNL1        0.0240
     10 C           9.2611    5.5286   -1.1385 C.3     1  UNL1       -0.0448
     11 C          10.7811    5.5286   -1.1385 C.3     1  UNL1       -0.0529
     12 C          11.2877    6.9288   -1.4437 C.3     1  UNL1       -0.0559
     13 C          12.8077    6.9288   -1.4437 C.3     1  UNL1       -0.0653
     14 H           0.6194   -0.9014    0.2632 H       1  UNL1        0.0230
     15 H           0.6194    0.3910   -0.9127 H       1  UNL1        0.0230
     16 H           0.6194    0.7631    0.7945 H       1  UNL1        0.0230
     17 H           2.8528   -0.5947   -0.6978 H       1  UNL1        0.0263
     18 H           2.8528   -0.2225    1.0094 H       1  UNL1        0.0263
     19 H           2.6461    2.1633    0.4893 H       1  UNL1        0.0266
     20 H           2.6461    1.7912   -1.2179 H       1  UNL1        0.0266
     21 H           4.8794    0.8055   -1.0031 H       1  UNL1        0.0280
     22 H           4.8794    1.1777    0.7041 H       1  UNL1        0.0280
     23 H           4.6727    3.5635    0.1840 H       1  UNL1        0.0462
     24 H           4.6727    3.1913   -1.5232 H       1  UNL1        0.0462
     25 H           6.9917    2.0516   -0.3805 H       1  UNL1        0.1487
     26 H           9.1111    3.4495   -1.5795 H       1  UNL1        0.0358
     27 H           9.1111    3.8217    0.1278 H       1  UNL1        0.0358
     28 H           8.9044    6.2075   -0.3923 H       1  UNL1        0.0270
     29 H           8.9044    5.8354   -2.0996 H       1  UNL1        0.0270
     30 H          11.1377    4.8497   -1.8847 H       1  UNL1        0.0265
     31 H          11.1377    5.2219   -0.1775 H       1  UNL1        0.0265
     32 H          10.9311    7.6077   -0.6976 H       1  UNL1        0.0263
     33 H          10.9311    7.2356   -2.4048 H       1  UNL1        0.0263
     34 H          13.1644    6.6221   -0.4827 H       1  UNL1        0.0230
     35 H          13.1644    7.9145   -1.6586 H       1  UNL1        0.0230
     36 H          13.1644    6.2499   -2.1899 H       1  UNL1        0.0230
@<TRIPOS>BOND
     1     1     2    1
     2     2     3    1
     3     3     4    1
     4     4     5    1
     5     5     6    1
     6     6     7   am
     7     7     8    2
     8     7     9    1
     9     9    10    1
    10    10    11    1
    11    11    12    1
    12    12    13    1
    13     1    14    1
    14     1    15    1
    15     1    16    1
    16     2    17    1
    17     2    18    1
    18     3    19    1
    19     3    20    1
    20     4    21    1
    21     4    22    1
    22     5    23    1
    23     5    24    1
    24     6    25    1
    25     9    26    1
    26     9    27    1
    27    10    28    1
    28    10    29    1
    29    11    30    1
    30    11    31    1
    31    12    32    1
    32    12    33    1
    33    13    34    1
    34    13    35    1
    35    13    36    1
