@<TRIPOS>MOLECULE
*****
 28 27 0 0 0
SMALL
GASTEIGER

@<TRIPOS>ATOM
      1 N           1.0390   -0.0905    0.0170 N.3     1  UNL1       -0.3279
      2 C           2.5090   -0.0905    0.0170 C.3     1  UNL1        0.0166
      3 C           3.0156    1.0015    0.9450 C.3     1  UNL1        0.0600
      4 O           4.4356    1.0015    0.9450 O.3     1  UNL1       -0.3763
      5 C           4.9090    2.0217    1.8120 C.3     1  UNL1        0.0711
      6 C           6.4290    2.0217    1.8120 C.3     1  UNL1        0.0711
      7 O           6.9023    3.0418    2.6789 O.3     1  UNL1       -0.3760
      8 C           8.3223    3.0418    2.6789 C.3     1  UNL1        0.0632
      9 C           8.8290    4.1339    3.6069 C.3     1  UNL1        0.0348
     10 N          10.2990    4.1339    3.6069 N.am    1  UNL1       -0.3157
     11 C          11.0340    5.1039    4.4313 C.2     1  UNL1        0.2000
     12 O          12.3049    5.1039    4.4313 O.2     1  UNL1       -0.2795
     13 H           0.6990   -0.8233   -0.6057 H       1  UNL1        0.1183
     14 H           0.6990    0.8152   -0.3063 H       1  UNL1        0.1183
     15 H           2.8656    0.0909   -0.9754 H       1  UNL1        0.0444
     16 H           2.8656   -1.0406    0.3561 H       1  UNL1        0.0444
     17 H           2.6590    0.8201    1.9374 H       1  UNL1        0.0572
     18 H           2.6590    1.9516    0.6059 H       1  UNL1        0.0572
     19 H           4.5523    1.8403    2.8043 H       1  UNL1        0.0583
     20 H           4.5523    2.9718    1.4729 H       1  UNL1        0.0583
     21 H           6.7856    2.2031    0.8196 H       1  UNL1        0.0583
     22 H           6.7856    1.0716    2.1511 H       1  UNL1        0.0583
     23 H           8.6790    3.2232    1.6866 H       1  UNL1        0.0575
     24 H           8.6790    2.0917    3.0180 H       1  UNL1        0.0575
     25 H           8.4723    3.9525    4.5993 H       1  UNL1        0.0484
     26 H           8.4723    5.0840    3.2678 H       1  UNL1        0.0484
     27 H          10.7912    3.4842    3.0548 H       1  UNL1        0.1485
     28 H          10.5180    5.7850    5.0101 H       1  UNL1        0.1251
@<TRIPOS>BOND
     1     1     2    1
     2     2     3    1
     3     3     4    1
     4     4     5    1
     5     5     6    1
     6     6     7    1
     7     7     8    1
     8     8     9    1
     9     9    10    1
    10    10    11   am
    11    11    12    2
    12     1    13    1
    13     1    14    1
    14     2    15    1
    15     2    16    1
    16     3    17    1
    17     3    18    1
    18     5    19    1
    19     5    20    1
    20     6    21    1
    21     6    22    1
    22     8    23    1
    23     8    24    1
    24     9    25    1
    25     9    26    1
    26    10    27    1
    27    11    28    1
