@<TRIPOS>MOLECULE
*****
 33 32 0 0 0
SMALL
GASTEIGER

@<TRIPOS>ATOM
      1 C           1.0698   -0.0696   -0.0167 C.3     1  UNL1       -0.0416
      2 C           2.5898   -0.0696   -0.0167 C.3     1  UNL1        0.0449
      3 O           3.0631   -0.7868   -1.1472 O.3     1  UNL1       -0.3778
      4 C           4.4831   -0.7868   -1.1472 C.3     1  UNL1        0.0710
      5 C           4.9898   -1.5545   -2.3573 C.3     1  UNL1        0.0711
      6 O           6.4098   -1.5545   -2.3573 O.3     1  UNL1       -0.3752
      7 C           6.8831   -2.2717   -3.4878 C.3     1  UNL1        0.0711
      8 C           8.4031   -2.2717   -3.4878 C.3     1  UNL1        0.0711
      9 O           8.8764   -2.9889   -4.6183 O.3     1  UNL1       -0.3760
     10 C          10.2964   -2.9889   -4.6183 C.3     1  UNL1        0.0632
     11 C          10.8031   -3.7565   -5.8284 C.3     1  UNL1        0.0348
     12 N          12.2731   -3.7565   -5.8284 N.am    1  UNL1       -0.3157
     13 C          13.0081   -4.4385   -6.9034 C.2     1  UNL1        0.2000
     14 O          14.2790   -4.4385   -6.9034 O.2     1  UNL1       -0.2795
     15 H           0.7131    0.4708    0.8351 H       1  UNL1        0.0252
     16 H           0.7131   -1.0776    0.0254 H       1  UNL1        0.0252
     17 H           0.7131    0.3979   -0.9107 H       1  UNL1        0.0252
     18 H           2.9465   -0.5372    0.8772 H       1  UNL1        0.0557
     19 H           2.9465    0.9383   -0.0588 H       1  UNL1        0.0557
     20 H           4.8398   -1.2543   -0.2533 H       1  UNL1        0.0583
     21 H           4.8398    0.2211   -1.1893 H       1  UNL1        0.0583
     22 H           4.6331   -1.0870   -3.2513 H       1  UNL1        0.0583
     23 H           4.6331   -2.5624   -2.3153 H       1  UNL1        0.0583
     24 H           6.5264   -1.8042   -4.3818 H       1  UNL1        0.0583
     25 H           6.5264   -3.2796   -3.4457 H       1  UNL1        0.0583
     26 H           8.7598   -2.7392   -2.5939 H       1  UNL1        0.0583
     27 H           8.7598   -1.2638   -3.5299 H       1  UNL1        0.0583
     28 H          10.6531   -3.4564   -3.7244 H       1  UNL1        0.0575
     29 H          10.6531   -1.9809   -4.6604 H       1  UNL1        0.0575
     30 H          10.4464   -3.2890   -6.7224 H       1  UNL1        0.0484
     31 H          10.4464   -4.7645   -5.7863 H       1  UNL1        0.0484
     32 H          12.7653   -3.2998   -5.1085 H       1  UNL1        0.1485
     33 H          12.4921   -4.9173   -7.6581 H       1  UNL1        0.1251
@<TRIPOS>BOND
     1     1     2    1
     2     2     3    1
     3     3     4    1
     4     4     5    1
     5     5     6    1
     6     6     7    1
     7     7     8    1
     8     8     9    1
     9     9    10    1
    10    10    11    1
    11    11    12    1
    12    12    13   am
    13    13    14    2
    14     1    15    1
    15     1    16    1
    16     1    17    1
    17     2    18    1
    18     2    19    1
    19     4    20    1
    20     4    21    1
    21     5    22    1
    22     5    23    1
    23     7    24    1
    24     7    25    1
    25     8    26    1
    26     8    27    1
    27    10    28    1
    28    10    29    1
    29    11    30    1
    30    11    31    1
    31    12    32    1
    32    13    33    1
