@<TRIPOS>MOLECULE
*****
 38 39 0 0 0
SMALL
GASTEIGER

@<TRIPOS>ATOM
      1 C           0.9991    0.1000    0.0026 C.3     1  UNL1       -0.0650
      2 C           2.5191    0.1000    0.0026 C.3     1  UNL1       -0.0531
      3 C           3.0257   -1.0747    0.8235 C.3     1  UNL1       -0.0412
      4 C           4.5457   -1.0747    0.8235 C.3     1  UNL1       -0.0488
      5 C           5.0524   -2.2494    1.6444 C.3     1  UNL1       -0.0371
      6 C           6.5724   -2.2494    1.6444 C.3     1  UNL1        0.0105
      7 N           7.0624   -0.9938    2.2313 N.3     1  UNL1       -0.2970
      8 C           6.5724    0.1422    1.4374 C.3     1  UNL1        0.0118
      9 C           7.0791    1.4404    2.0442 C.3     1  UNL1        0.0087
     10 N           6.5891    2.5764    1.2503 N.3     1  UNL1       -0.3136
     11 C           7.0791    3.8320    1.8372 C.3     1  UNL1        0.0087
     12 C           8.5324   -0.9938    2.2313 C.3     1  UNL1        0.0118
     13 C           7.0791   -3.4240    2.4653 C.3     1  UNL1       -0.0371
     14 C           2.5191   -2.3729    0.2166 C.3     1  UNL1       -0.0488
     15 H           0.6424    0.9269   -0.5753 H       1  UNL1        0.0230
     16 H           0.6424    0.1870    1.0076 H       1  UNL1        0.0230
     17 H           0.6424   -0.8139   -0.4246 H       1  UNL1        0.0230
     18 H           2.8757    1.0139    0.4298 H       1  UNL1        0.0265
     19 H           2.8758    0.0130   -1.0025 H       1  UNL1        0.0265
     20 H           2.6691   -0.9877    1.8285 H       1  UNL1        0.0301
     21 H           4.9024   -0.1608    1.2507 H       1  UNL1        0.0268
     22 H           4.9024   -1.1617   -0.1816 H       1  UNL1        0.0268
     23 H           4.6957   -3.1633    1.2172 H       1  UNL1        0.0280
     24 H           4.6957   -2.1624    2.6494 H       1  UNL1        0.0280
     25 H           6.9291   -2.3364    0.6393 H       1  UNL1        0.0462
     26 H           5.5024    0.1422    1.4374 H       1  UNL1        0.0439
     27 H           6.9291    0.0552    0.4323 H       1  UNL1        0.0439
     28 H           8.1491    1.4404    2.0442 H       1  UNL1        0.0437
     29 H           6.7224    1.5274    3.0493 H       1  UNL1        0.0437
     30 H           5.5691    2.5764    1.2503 H       1  UNL1        0.1220
     31 H           6.5553    4.3331    2.6242 H       1  UNL1        0.0437
     32 H           7.4606    4.7871    1.5420 H       1  UNL1        0.0437
     33 H           9.0281   -1.2902    3.1320 H       1  UNL1        0.0439
     34 H           9.2045   -1.5463    1.6084 H       1  UNL1        0.0439
     35 H           7.2174   -3.3577    3.5242 H       1  UNL1        0.0280
     36 H           7.8515   -4.1643    2.4535 H       1  UNL1        0.0280
     37 H           1.6417   -2.8118    0.6439 H       1  UNL1        0.0268
     38 H           2.2003   -2.5695   -0.7857 H       1  UNL1        0.0268
@<TRIPOS>BOND
     1     1     2    1
     2     2     3    1
     3     3     4    1
     4     4     5    1
     5     5     6    1
     6     6     7    1
     7     7     8    1
     8     8     9    1
     9     9    10    1
    10    10    11    1
    11    11    12    1
    12     7    12    1
    13     6    13    1
    14    13    14    1
    15     3    14    1
    16     1    15    1
    17     1    16    1
    18     1    17    1
    19     2    18    1
    20     2    19    1
    21     3    20    1
    22     4    21    1
    23     4    22    1
    24     5    23    1
    25     5    24    1
    26     6    25    1
    27     8    26    1
    28     8    27    1
    29     9    28    1
    30     9    29    1
    31    10    30    1
    32    11    31    1
    33    11    32    1
    34    12    33    1
    35    12    34    1
    36    13    35    1
    37    13    36    1
    38    14    37    1
    39    14    38    1
