@<TRIPOS>MOLECULE
*****
 46 48 0 0 0
SMALL
GASTEIGER

@<TRIPOS>ATOM
      1 O           1.0035    0.0936   -0.0350 O.2     1  UNL1       -0.2957
      2 C           2.2744    0.0936   -0.0350 C.2     1  UNL1        0.1502
      3 C           3.0344   -1.2222    0.0046 C.ar    1  UNL1        0.0143
      4 C           4.4746   -1.2222    0.0046 C.ar    1  UNL1       -0.0504
      5 C           5.1947   -2.4688    0.0422 C.ar    1  UNL1       -0.0457
      6 C           6.6349   -2.4688    0.0422 C.ar    1  UNL1        0.0250
      7 C           7.3949   -1.1531    0.0025 C.1     1  UNL1       -0.0660
      8 C           8.0468   -0.0244   -0.0315 C.1     1  UNL1       -0.0935
      9 C           8.8068    1.2913   -0.0711 C.3     1  UNL1        0.0233
     10 C          10.0710    1.1716    0.7642 C.3     1  UNL1       -0.0264
     11 C          10.8310    2.4874    0.7246 C.3     1  UNL1        0.0003
     12 N          12.0536    2.3716    1.5325 N.3     1  UNL1       -0.2992
     13 C          12.9004    1.3000    0.9889 C.3     1  UNL1        0.0127
     14 C          12.1404   -0.0158    1.0286 C.3     1  UNL1       -0.0247
     15 C          13.0161   -1.1238    0.4665 C.3     1  UNL1       -0.0027
     16 N          12.2811   -2.3963    0.5049 N.3     1  UNL1       -0.3159
     17 C          13.1279   -3.4679   -0.0387 C.3     1  UNL1       -0.0027
     18 C          14.1647    1.1802    1.8243 C.3     1  UNL1       -0.0247
     19 C          12.7886    3.6440    1.4942 C.3     1  UNL1        0.0003
     20 C           7.9311    2.3994    0.4909 C.3     1  UNL1       -0.0264
     21 C           7.3550   -3.7155    0.0797 C.ar    1  UNL1       -0.0457
     22 C           2.3143   -2.4688    0.0422 C.ar    1  UNL1       -0.0504
     23 H           2.7904    0.9869   -0.0620 H       1  UNL1        0.1081
     24 H           4.9906   -0.3288   -0.0223 H       1  UNL1        0.0625
     25 H           4.6787   -3.3622    0.0691 H       1  UNL1        0.0630
     26 H           9.0683    1.5219   -1.0828 H       1  UNL1        0.0434
     27 H          10.6874    0.3916    0.3686 H       1  UNL1        0.0289
     28 H           9.8095    0.9411    1.7759 H       1  UNL1        0.0289
     29 H          10.2146    3.2674    1.1203 H       1  UNL1        0.0427
     30 H          11.0925    2.7179   -0.2870 H       1  UNL1        0.0427
     31 H          13.1619    1.5305   -0.0227 H       1  UNL1        0.0463
     32 H          11.2505    0.0685    0.4405 H       1  UNL1        0.0293
     33 H          11.8790   -0.2463    2.0402 H       1  UNL1        0.0293
     34 H          13.9060   -1.2081    1.0546 H       1  UNL1        0.0424
     35 H          13.2776   -0.8933   -0.5451 H       1  UNL1        0.0424
     36 H          11.4327   -2.3159   -0.0557 H       1  UNL1        0.1219
     37 H          13.1696   -3.6802   -1.0866 H       1  UNL1        0.0424
     38 H          13.3667   -4.4961    0.1365 H       1  UNL1        0.0424
     39 H          15.0447    1.6739    1.4685 H       1  UNL1        0.0293
     40 H          14.3368    1.4798    2.8370 H       1  UNL1        0.0293
     41 H          13.4872    3.8712    0.7162 H       1  UNL1        0.0427
     42 H          13.3579    4.2845    2.1350 H       1  UNL1        0.0427
     43 H           7.3944    3.0104   -0.2044 H       1  UNL1        0.0289
     44 H           7.0989    2.3299    1.1599 H       1  UNL1        0.0289
     45 H           8.1797   -4.3356    0.0984 H       1  UNL1        0.0630
     46 H           1.3647   -2.8727    0.0543 H       1  UNL1        0.0625
@<TRIPOS>BOND
     1     1     2    2
     2     2     3    1
     3     3     4   ar
     4     4     5   ar
     5     5     6   ar
     6     6     7    1
     7     7     8    3
     8     8     9    1
     9     9    10    1
    10    10    11    1
    11    11    12    1
    12    12    13    1
    13    13    14    1
    14    14    15    1
    15    15    16    1
    16    16    17    1
    17    17    18    1
    18    13    18    1
    19    12    19    1
    20    19    20    1
    21     9    20    1
    22     6    21   ar
    23    21    22   ar
    24     3    22   ar
    25     2    23    1
    26     4    24    1
    27     5    25    1
    28     9    26    1
    29    10    27    1
    30    10    28    1
    31    11    29    1
    32    11    30    1
    33    13    31    1
    34    14    32    1
    35    14    33    1
    36    15    34    1
    37    15    35    1
    38    16    36    1
    39    17    37    1
    40    17    38    1
    41    18    39    1
    42    18    40    1
    43    19    41    1
    44    19    42    1
    45    20    43    1
    46    20    44    1
    47    21    45    1
    48    22    46    1
