@<TRIPOS>MOLECULE
*****
 26 25 0 0 0
SMALL
GASTEIGER

@<TRIPOS>ATOM
      1 C           0.9339    0.0304    0.0686 C.3     1  UNL1       -0.0653
      2 C           2.4539    0.0304    0.0686 C.3     1  UNL1       -0.0559
      3 C           2.9605    1.1243   -0.8572 C.3     1  UNL1       -0.0533
      4 C           4.4805    1.1243   -0.8572 C.3     1  UNL1       -0.0531
      5 C           4.9872    2.2182   -1.7830 C.3     1  UNL1       -0.0531
      6 C           6.5072    2.2182   -1.7830 C.3     1  UNL1       -0.0533
      7 C           7.0139    3.3122   -2.7088 C.3     1  UNL1       -0.0559
      8 C           8.5339    3.3122   -2.7088 C.3     1  UNL1       -0.0653
      9 H           0.5772   -0.7396    0.7203 H       1  UNL1        0.0230
     10 H           0.5772   -0.1489   -0.9242 H       1  UNL1        0.0230
     11 H           0.5772    0.9799    0.4096 H       1  UNL1        0.0230
     12 H           2.8105   -0.9190   -0.2725 H       1  UNL1        0.0263
     13 H           2.8106    0.2098    1.0613 H       1  UNL1        0.0263
     14 H           2.6039    2.0738   -0.5162 H       1  UNL1        0.0265
     15 H           2.6039    0.9450   -1.8499 H       1  UNL1        0.0265
     16 H           4.8372    0.1749   -1.1982 H       1  UNL1        0.0265
     17 H           4.8372    1.3037    0.1355 H       1  UNL1        0.0265
     18 H           4.6305    3.1677   -1.4420 H       1  UNL1        0.0265
     19 H           4.6305    2.0389   -2.7757 H       1  UNL1        0.0265
     20 H           6.8639    1.2688   -2.1240 H       1  UNL1        0.0265
     21 H           6.8639    2.3976   -0.7903 H       1  UNL1        0.0265
     22 H           6.6572    4.2616   -2.3677 H       1  UNL1        0.0263
     23 H           6.6572    3.1328   -3.7015 H       1  UNL1        0.0263
     24 H           8.8905    3.4915   -1.7160 H       1  UNL1        0.0230
     25 H           8.8905    4.0822   -3.3605 H       1  UNL1        0.0230
     26 H           8.8905    2.3627   -3.0498 H       1  UNL1        0.0230
@<TRIPOS>BOND
     1     1     2    1
     2     2     3    1
     3     3     4    1
     4     4     5    1
     5     5     6    1
     6     6     7    1
     7     7     8    1
     8     1     9    1
     9     1    10    1
    10     1    11    1
    11     2    12    1
    12     2    13    1
    13     3    14    1
    14     3    15    1
    15     4    16    1
    16     4    17    1
    17     5    18    1
    18     5    19    1
    19     6    20    1
    20     6    21    1
    21     7    22    1
    22     7    23    1
    23     8    24    1
    24     8    25    1
    25     8    26    1
