@<TRIPOS>MOLECULE
*****
 33 33 0 0 0
SMALL
GASTEIGER

@<TRIPOS>ATOM
      1 C           0.9850   -0.0533   -0.0832 C.3     1  UNL1       -0.0653
      2 C           2.5050   -0.0533   -0.0832 C.3     1  UNL1       -0.0555
      3 C           3.0117   -0.4469   -1.4612 C.3     1  UNL1       -0.0450
      4 C           4.5317   -0.4469   -1.4612 C.3     1  UNL1        0.0241
      5 C           5.0383   -0.8405   -2.8392 C.2     1  UNL1        0.2156
      6 O           4.2125   -1.1058   -3.7680 O.2     1  UNL1       -0.2756
      7 N           6.4836   -0.9143   -3.0975 N.am    1  UNL1       -0.2990
      8 C           6.9736   -1.2949   -4.4301 C.3     1  UNL1        0.0275
      9 C           8.4936   -1.2949   -4.4301 C.3     1  UNL1        0.0145
     10 N           8.9836   -1.6755   -5.7627 N.3     1  UNL1       -0.3024
     11 C           8.4936   -0.7117   -6.7587 C.3     1  UNL1       -0.0126
     12 C          10.4536   -1.6755   -5.7627 C.3     1  UNL1        0.0145
     13 C           7.4388   -0.6074   -2.0231 C.3     1  UNL1        0.0275
     14 H           0.6283    0.2237    0.8868 H       1  UNL1        0.0230
     15 H           0.6283   -1.0319   -0.3283 H       1  UNL1        0.0230
     16 H           0.6283    0.6482   -0.8082 H       1  UNL1        0.0230
     17 H           2.8617   -0.7549    0.6417 H       1  UNL1        0.0263
     18 H           2.8617    0.9252    0.1618 H       1  UNL1        0.0263
     19 H           2.6550    0.2546   -2.1862 H       1  UNL1        0.0270
     20 H           2.6550   -1.4255   -1.7063 H       1  UNL1        0.0270
     21 H           4.8883   -1.1484   -0.7363 H       1  UNL1        0.0358
     22 H           4.8883    0.5317   -1.2161 H       1  UNL1        0.0358
     23 H           6.6169   -0.5934   -5.1551 H       1  UNL1        0.0477
     24 H           6.6169   -2.2735   -4.6752 H       1  UNL1        0.0477
     25 H           8.8502   -1.9964   -3.7052 H       1  UNL1        0.0442
     26 H           8.8502   -0.3163   -4.1850 H       1  UNL1        0.0442
     27 H           7.4236   -0.7117   -6.7587 H       1  UNL1        0.0391
     28 H           8.8502   -0.9888   -7.7287 H       1  UNL1        0.0391
     29 H           8.8502    0.2668   -6.5136 H       1  UNL1        0.0391
     30 H          11.0083   -0.9101   -6.2641 H       1  UNL1        0.0442
     31 H          11.2518   -2.3557   -5.9753 H       1  UNL1        0.0442
     32 H           7.4536    0.4023   -1.6692 H       1  UNL1        0.0477
     33 H           7.4585   -1.0435   -1.0462 H       1  UNL1        0.0477
@<TRIPOS>BOND
     1     1     2    1
     2     2     3    1
     3     3     4    1
     4     4     5    1
     5     5     6    2
     6     5     7   am
     7     7     8    1
     8     8     9    1
     9     9    10    1
    10    10    11    1
    11    10    12    1
    12    12    13    1
    13     7    13    1
    14     1    14    1
    15     1    15    1
    16     1    16    1
    17     2    17    1
    18     2    18    1
    19     3    19    1
    20     3    20    1
    21     4    21    1
    22     4    22    1
    23     8    23    1
    24     8    24    1
    25     9    25    1
    26     9    26    1
    27    11    27    1
    28    11    28    1
    29    11    29    1
    30    12    30    1
    31    12    31    1
    32    13    32    1
    33    13    33    1
