@<TRIPOS>MOLECULE
*****
 11 10 0 0 0
SMALL
GASTEIGER

@<TRIPOS>ATOM
      1 C           0.9321    0.0129   -0.0723 C.3     1  UNL1       -0.0655
      2 C           2.4521    0.0129   -0.0723 C.3     1  UNL1       -0.0588
      3 C           2.9588   -0.3847    1.3045 C.3     1  UNL1       -0.0655
      4 H           0.5754    0.2928   -1.0415 H       1  UNL1        0.0230
      5 H           0.5754    0.7123    0.6547 H       1  UNL1        0.0230
      6 H           0.5754   -0.9664    0.1699 H       1  UNL1        0.0230
      7 H           2.8088    0.9922   -0.3145 H       1  UNL1        0.0260
      8 H           2.8088   -0.6865   -0.7993 H       1  UNL1        0.0260
      9 H           2.6021    0.3147    2.0315 H       1  UNL1        0.0230
     10 H           4.0288   -0.3847    1.3045 H       1  UNL1        0.0230
     11 H           2.6021   -1.3640    1.5467 H       1  UNL1        0.0230
@<TRIPOS>BOND
     1     1     2    1
     2     2     3    1
     3     1     4    1
     4     1     5    1
     5     1     6    1
     6     2     7    1
     7     2     8    1
     8     3     9    1
     9     3    10    1
    10     3    11    1
