@<TRIPOS>MOLECULE
*****
 14 13 0 0 0
SMALL
GASTEIGER

@<TRIPOS>ATOM
      1 C           0.9066    0.0348   -0.0083 C.3     1  UNL1       -0.0653
      2 C           2.4266    0.0348   -0.0083 C.3     1  UNL1       -0.0562
      3 C           2.9333    0.5940    1.3111 C.3     1  UNL1       -0.0562
      4 C           4.4533    0.5940    1.3111 C.3     1  UNL1       -0.0653
      5 H           0.5500   -0.3588   -0.9372 H       1  UNL1        0.0230
      6 H           0.5500    1.0361    0.1152 H       1  UNL1        0.0230
      7 H           0.5500   -0.5727    0.7970 H       1  UNL1        0.0230
      8 H           2.7833    0.6424   -0.8137 H       1  UNL1        0.0263
      9 H           2.7833   -0.9664   -0.1319 H       1  UNL1        0.0263
     10 H           2.5766   -0.0135    2.1164 H       1  UNL1        0.0263
     11 H           2.5766    1.5952    1.4346 H       1  UNL1        0.0263
     12 H           4.8100   -0.4072    1.1876 H       1  UNL1        0.0230
     13 H           4.8100    0.9877    2.2400 H       1  UNL1        0.0230
     14 H           4.8100    1.2016    0.5058 H       1  UNL1        0.0230
@<TRIPOS>BOND
     1     1     2    1
     2     2     3    1
     3     3     4    1
     4     1     5    1
     5     1     6    1
     6     1     7    1
     7     2     8    1
     8     2     9    1
     9     3    10    1
    10     3    11    1
    11     4    12    1
    12     4    13    1
    13     4    14    1
