@<TRIPOS>MOLECULE
*****
 44 43 0 0 0
SMALL
GASTEIGER

@<TRIPOS>ATOM
      1 C           1.0471    0.0784   -0.0403 C.3     1  UNL1        0.0121
      2 C           2.5671    0.0784   -0.0403 C.2     1  UNL1        0.2100
      3 O           3.2026    1.1086    0.3472 O.2     1  UNL1       -0.2761
      4 N           3.3021   -1.1131   -0.4886 N.am    1  UNL1       -0.3133
      5 C           4.7721   -1.1131   -0.4886 C.3     1  UNL1        0.0350
      6 C           5.2788   -2.4544   -0.9933 C.3     1  UNL1        0.0632
      7 O           6.6988   -2.4544   -0.9933 O.3     1  UNL1       -0.3760
      8 C           7.1721   -3.7074   -1.4647 C.3     1  UNL1        0.0711
      9 C           8.6921   -3.7074   -1.4647 C.3     1  UNL1        0.0711
     10 O           9.1655   -4.9604   -1.9362 O.3     1  UNL1       -0.3752
     11 C          10.5855   -4.9604   -1.9362 C.3     1  UNL1        0.0711
     12 C          11.0921   -6.3017   -2.4408 C.3     1  UNL1        0.0711
     13 O          12.5121   -6.3017   -2.4408 O.3     1  UNL1       -0.3760
     14 C          12.9854   -7.5548   -2.9122 C.3     1  UNL1        0.0633
     15 C          14.5054   -7.5548   -2.9122 C.3     1  UNL1        0.0351
     16 N          14.9954   -8.8519   -3.4003 N.am    1  UNL1       -0.3112
     17 C          16.4407   -9.1033   -3.4949 C.2     1  UNL1        0.2386
     18 O          17.2666   -8.1992   -3.1547 O.2     1  UNL1       -0.2733
     19 C          16.9474  -10.4446   -3.9995 C.3     1  UNL1        0.1202
     20 O          18.3674  -10.4446   -3.9995 O.3     1  UNL1       -0.3858
     21 H           0.6905    1.0226    0.3149 H       1  UNL1        0.0322
     22 H           0.6905   -0.7013    0.5997 H       1  UNL1        0.0322
     23 H           0.6905   -0.0860   -1.0356 H       1  UNL1        0.0322
     24 H           2.8099   -1.9111   -0.7889 H       1  UNL1        0.1488
     25 H           5.1288   -0.9486    0.5067 H       1  UNL1        0.0484
     26 H           5.1288   -0.3333   -1.1287 H       1  UNL1        0.0484
     27 H           4.9221   -2.6188   -1.9886 H       1  UNL1        0.0575
     28 H           4.9221   -3.2341   -0.3532 H       1  UNL1        0.0575
     29 H           6.8155   -3.8719   -2.4600 H       1  UNL1        0.0583
     30 H           6.8155   -4.4872   -0.8246 H       1  UNL1        0.0583
     31 H           9.0488   -3.5430   -0.4694 H       1  UNL1        0.0583
     32 H           9.0488   -2.9277   -2.1048 H       1  UNL1        0.0583
     33 H          10.9421   -4.7960   -0.9408 H       1  UNL1        0.0583
     34 H          10.9421   -4.1807   -2.5762 H       1  UNL1        0.0583
     35 H          10.7355   -6.4662   -3.4361 H       1  UNL1        0.0583
     36 H          10.7355   -7.0815   -1.8007 H       1  UNL1        0.0583
     37 H          12.6288   -7.7192   -3.9076 H       1  UNL1        0.0575
     38 H          12.6288   -8.3345   -2.2722 H       1  UNL1        0.0575
     39 H          14.8621   -7.3903   -1.9169 H       1  UNL1        0.0484
     40 H          14.8621   -6.7750   -3.5523 H       1  UNL1        0.0484
     41 H          14.3557   -9.5523   -3.6638 H       1  UNL1        0.1488
     42 H          16.5907  -10.6091   -4.9948 H       1  UNL1        0.0654
     43 H          16.5907  -11.2244   -3.3594 H       1  UNL1        0.0654
     44 H          18.6907   -9.7377   -4.5798 H       1  UNL1        0.2100
@<TRIPOS>BOND
     1     1     2    1
     2     2     3    2
     3     2     4   am
     4     4     5    1
     5     5     6    1
     6     6     7    1
     7     7     8    1
     8     8     9    1
     9     9    10    1
    10    10    11    1
    11    11    12    1
    12    12    13    1
    13    13    14    1
    14    14    15    1
    15    15    16    1
    16    16    17   am
    17    17    18    2
    18    17    19    1
    19    19    20    1
    20     1    21    1
    21     1    22    1
    22     1    23    1
    23     4    24    1
    24     5    25    1
    25     5    26    1
    26     6    27    1
    27     6    28    1
    28     8    29    1
    29     8    30    1
    30     9    31    1
    31     9    32    1
    32    11    33    1
    33    11    34    1
    34    12    35    1
    35    12    36    1
    36    14    37    1
    37    14    38    1
    38    15    39    1
    39    15    40    1
    40    16    41    1
    41    19    42    1
    42    19    43    1
    43    20    44    1
