@<TRIPOS>MOLECULE
*****
 65 64 0 0 0
SMALL
GASTEIGER

@<TRIPOS>ATOM
      1 C           1.0654   -0.0649   -0.0388 C.3     1  UNL1       -0.0416
      2 C           2.5854   -0.0649   -0.0388 C.3     1  UNL1        0.0449
      3 O           3.0588    1.1955    0.4127 O.3     1  UNL1       -0.3778
      4 C           4.4788    1.1955    0.4127 C.3     1  UNL1        0.0710
      5 C           4.9854    2.5446    0.8959 C.3     1  UNL1        0.0711
      6 O           6.4054    2.5446    0.8959 O.3     1  UNL1       -0.3752
      7 C           6.8788    3.8050    1.3473 C.3     1  UNL1        0.0711
      8 C           8.3988    3.8050    1.3473 C.3     1  UNL1        0.0711
      9 O           8.8721    5.0654    1.7988 O.3     1  UNL1       -0.3752
     10 C          10.2921    5.0654    1.7988 C.3     1  UNL1        0.0711
     11 C          10.7987    6.4145    2.2820 C.3     1  UNL1        0.0711
     12 O          12.2187    6.4145    2.2820 O.3     1  UNL1       -0.3752
     13 C          12.6921    7.6749    2.7334 C.3     1  UNL1        0.0711
     14 C          14.2121    7.6749    2.7334 C.3     1  UNL1        0.0711
     15 O          14.6854    8.9353    3.1849 O.3     1  UNL1       -0.3752
     16 C          16.1054    8.9353    3.1849 C.3     1  UNL1        0.0711
     17 C          16.6121   10.2844    3.6681 C.3     1  UNL1        0.0711
     18 O          18.0321   10.2844    3.6681 O.3     1  UNL1       -0.3752
     19 C          18.5054   11.5448    4.1196 C.3     1  UNL1        0.0711
     20 C          20.0254   11.5448    4.1196 C.3     1  UNL1        0.0711
     21 O          20.4987   12.8052    4.5710 O.3     1  UNL1       -0.3752
     22 C          21.9187   12.8052    4.5710 C.3     1  UNL1        0.0711
     23 C          22.4254   14.1543    5.0542 C.3     1  UNL1        0.0711
     24 O          23.8454   14.1543    5.0542 O.3     1  UNL1       -0.3752
     25 C          24.3187   15.4147    5.5057 C.3     1  UNL1        0.0708
     26 C          25.8387   15.4147    5.5057 C.3     1  UNL1        0.0676
     27 O          26.3120   16.6751    5.9571 O.3     1  UNL1       -0.3927
     28 H           0.7088   -1.0146   -0.3789 H       1  UNL1        0.0252
     29 H           0.7088    0.7045   -0.6912 H       1  UNL1        0.0252
     30 H           0.7088    0.1153    0.9538 H       1  UNL1        0.0252
     31 H           2.9421   -0.2452   -1.0313 H       1  UNL1        0.0557
     32 H           2.9421   -0.8344    0.6136 H       1  UNL1        0.0557
     33 H           4.8354    1.0152   -0.5799 H       1  UNL1        0.0583
     34 H           4.8354    0.4260    1.0651 H       1  UNL1        0.0583
     35 H           4.6288    2.7249    1.8885 H       1  UNL1        0.0583
     36 H           4.6288    3.3141    0.2435 H       1  UNL1        0.0583
     37 H           6.5221    3.9852    2.3399 H       1  UNL1        0.0583
     38 H           6.5221    4.5744    0.6949 H       1  UNL1        0.0583
     39 H           8.7554    3.6247    0.3548 H       1  UNL1        0.0583
     40 H           8.7554    3.0355    1.9997 H       1  UNL1        0.0583
     41 H          10.6487    4.8851    0.8062 H       1  UNL1        0.0583
     42 H          10.6487    4.2959    2.4512 H       1  UNL1        0.0583
     43 H          10.4421    6.5948    3.2746 H       1  UNL1        0.0583
     44 H          10.4421    7.1840    1.6296 H       1  UNL1        0.0583
     45 H          12.3354    7.8552    3.7260 H       1  UNL1        0.0583
     46 H          12.3354    8.4443    2.0811 H       1  UNL1        0.0583
     47 H          14.5687    7.4946    1.7409 H       1  UNL1        0.0583
     48 H          14.5687    6.9054    3.3858 H       1  UNL1        0.0583
     49 H          16.4621    8.7550    2.1923 H       1  UNL1        0.0583
     50 H          16.4621    8.1658    3.8373 H       1  UNL1        0.0583
     51 H          16.2554   10.4647    4.6607 H       1  UNL1        0.0583
     52 H          16.2554   11.0539    3.0157 H       1  UNL1        0.0583
     53 H          18.1487   11.7251    5.1121 H       1  UNL1        0.0583
     54 H          18.1487   12.3142    3.4672 H       1  UNL1        0.0583
     55 H          20.3821   11.3645    3.1270 H       1  UNL1        0.0583
     56 H          20.3821   10.7753    4.7720 H       1  UNL1        0.0583
     57 H          22.2754   12.6249    3.5784 H       1  UNL1        0.0583
     58 H          22.2754   12.0357    5.2234 H       1  UNL1        0.0583
     59 H          22.0687   14.3346    6.0468 H       1  UNL1        0.0583
     60 H          22.0687   14.9238    4.4018 H       1  UNL1        0.0583
     61 H          23.9620   15.5950    6.4982 H       1  UNL1        0.0583
     62 H          23.9620   16.1842    4.8533 H       1  UNL1        0.0583
     63 H          26.1954   15.2344    4.5131 H       1  UNL1        0.0580
     64 H          26.1954   14.6452    6.1581 H       1  UNL1        0.0580
     65 H          25.9887   17.3726    5.3657 H       1  UNL1        0.2095
@<TRIPOS>BOND
     1     1     2    1
     2     2     3    1
     3     3     4    1
     4     4     5    1
     5     5     6    1
     6     6     7    1
     7     7     8    1
     8     8     9    1
     9     9    10    1
    10    10    11    1
    11    11    12    1
    12    12    13    1
    13    13    14    1
    14    14    15    1
    15    15    16    1
    16    16    17    1
    17    17    18    1
    18    18    19    1
    19    19    20    1
    20    20    21    1
    21    21    22    1
    22    22    23    1
    23    23    24    1
    24    24    25    1
    25    25    26    1
    26    26    27    1
    27     1    28    1
    28     1    29    1
    29     1    30    1
    30     2    31    1
    31     2    32    1
    32     4    33    1
    33     4    34    1
    34     5    35    1
    35     5    36    1
    36     7    37    1
    37     7    38    1
    38     8    39    1
    39     8    40    1
    40    10    41    1
    41    10    42    1
    42    11    43    1
    43    11    44    1
    44    13    45    1
    45    13    46    1
    46    14    47    1
    47    14    48    1
    48    16    49    1
    49    16    50    1
    50    17    51    1
    51    17    52    1
    52    19    53    1
    53    19    54    1
    54    20    55    1
    55    20    56    1
    56    22    57    1
    57    22    58    1
    58    23    59    1
    59    23    60    1
    60    25    61    1
    61    25    62    1
    62    26    63    1
    63    26    64    1
    64    27    65    1
