@<TRIPOS>MOLECULE
*****
 37 38 0 0 0
SMALL
GASTEIGER

@<TRIPOS>ATOM
      1 C           1.0553    0.0819   -0.0156 C.3     1  UNL1       -0.0641
      2 C           2.5753    0.0819   -0.0156 C.3     1  UNL1       -0.0431
      3 C           3.0819    0.1635   -1.4464 C.3     1  UNL1       -0.0012
      4 N           4.5519    0.1635   -1.4464 N.3     1  UNL1       -0.2994
      5 C           5.0419    0.2424   -2.8300 C.3     1  UNL1        0.0147
      6 C           6.5619    0.2424   -2.8300 C.3     1  UNL1        0.0263
      7 N           7.0519    0.3214   -4.2137 N.pl3   1  UNL1       -0.3116
      8 C           6.0967    0.3850   -5.3292 C.ar    1  UNL1        0.1396
      9 C           4.6807    0.3700   -5.0665 C.ar    1  UNL1        0.0683
     10 N           3.7756    0.4303   -6.1234 N.ar    1  UNL1       -0.2454
     11 C           2.4062    0.4158   -5.8693 C.ar    1  UNL1        0.1432
     12 C           1.8996    0.3342   -4.4386 C.2     1  UNL1        0.2614
     13 N           0.4543    0.3189   -4.1704 N.am    1  UNL1       -0.3240
     14 O           2.7254    0.2792   -3.4742 O.2     1  UNL1       -0.2687
     15 C           1.4703    0.4782   -6.9622 C.ar    1  UNL1        0.0602
     16 N           6.5609    0.4598   -6.6403 N.ar    1  UNL1       -0.2365
     17 C           8.4972    0.3367   -4.4819 C.3     1  UNL1        0.0263
     18 C           5.0419   -1.0743   -0.8229 C.3     1  UNL1        0.0147
     19 H           0.6986    0.0244    0.9916 H       1  UNL1        0.0230
     20 H           0.6986   -0.7616   -0.5690 H       1  UNL1        0.0230
     21 H           0.6986    0.9828   -0.4694 H       1  UNL1        0.0230
     22 H           2.9319   -0.8191    0.4382 H       1  UNL1        0.0275
     23 H           2.9319    0.9254    0.5377 H       1  UNL1        0.0275
     24 H           2.7253    1.0645   -1.9002 H       1  UNL1        0.0426
     25 H           2.7253   -0.6800   -1.9997 H       1  UNL1        0.0426
     26 H           4.6853    1.1434   -3.2839 H       1  UNL1        0.0442
     27 H           4.6853   -0.6011   -3.3834 H       1  UNL1        0.0442
     28 H           6.9186   -0.6585   -2.3762 H       1  UNL1        0.0477
     29 H           6.9186    1.0859   -2.2767 H       1  UNL1        0.0477
     30 H           4.3367    0.3146   -4.0951 H       1  UNL1        0.0865
     31 H          -0.1854    0.3615   -4.9175 H       1  UNL1        0.1453
     32 H           0.1262    0.2660   -3.2437 H       1  UNL1        0.1453
     33 H           0.5472    0.5045   -7.4227 H       1  UNL1        0.0853
     34 H           9.0941    1.2218   -4.4095 H       1  UNL1        0.0477
     35 H           9.2503   -0.0424   -5.1406 H       1  UNL1        0.0477
     36 H           5.3521   -1.0286    0.2001 H       1  UNL1        0.0442
     37 H           4.5414   -2.0101   -0.6867 H       1  UNL1        0.0442
@<TRIPOS>BOND
     1     1     2    1
     2     2     3    1
     3     3     4    1
     4     4     5    1
     5     5     6    1
     6     6     7    1
     7     7     8    1
     8     8     9   ar
     9     9    10   ar
    10    10    11   ar
    11    11    12    1
    12    12    13   am
    13    12    14    2
    14    11    15   ar
    15    15    16   ar
    16     8    16   ar
    17     7    17    1
    18    17    18    1
    19     4    18    1
    20     1    19    1
    21     1    20    1
    22     1    21    1
    23     2    22    1
    24     2    23    1
    25     3    24    1
    26     3    25    1
    27     5    26    1
    28     5    27    1
    29     6    28    1
    30     6    29    1
    31     9    30    1
    32    13    31    1
    33    13    32    1
    34    15    33    1
    35    17    34    1
    36    17    35    1
    37    18    36    1
    38    18    37    1
