@<TRIPOS>MOLECULE
*****
 17 17 0 0 0
SMALL
GASTEIGER

@<TRIPOS>ATOM
      1 C           0.9814   -0.0740    0.0646 C.3     1  UNL1       -0.0508
      2 C           2.5014   -0.0740    0.0646 C.3     1  UNL1       -0.0404
      3 C           3.0081   -0.8619   -1.1325 C.3     1  UNL1       -0.0041
      4 N           4.4781   -0.8619   -1.1325 N.3     1  UNL1       -0.3160
      5 C           4.9681   -1.6239   -2.2901 C.3     1  UNL1       -0.0041
      6 C           0.4747    0.7139    1.2616 C.3     1  UNL1       -0.0404
      7 H           0.6247   -1.0811    0.1236 H       1  UNL1        0.0266
      8 H           0.6247    0.3784   -0.8371 H       1  UNL1        0.0266
      9 H           2.8581   -0.5265    0.9662 H       1  UNL1        0.0277
     10 H           2.8581    0.9330    0.0056 H       1  UNL1        0.0277
     11 H           2.6514   -0.4095   -2.0341 H       1  UNL1        0.0424
     12 H           2.6514   -1.8690   -1.0735 H       1  UNL1        0.0424
     13 H           4.8181   -1.2932   -0.2729 H       1  UNL1        0.1219
     14 H           5.3047   -2.6384   -2.2424 H       1  UNL1        0.0424
     15 H           5.4687   -1.5890   -3.2351 H       1  UNL1        0.0424
     16 H           0.1380    1.7284    1.2139 H       1  UNL1        0.0277
     17 H          -0.0259    0.6790    2.2066 H       1  UNL1        0.0277
@<TRIPOS>BOND
     1     1     2    1
     2     2     3    1
     3     3     4    1
     4     4     5    1
     5     5     6    1
     6     1     6    1
     7     1     7    1
     8     1     8    1
     9     2     9    1
    10     2    10    1
    11     3    11    1
    12     3    12    1
    13     4    13    1
    14     5    14    1
    15     5    15    1
    16     6    16    1
    17     6    17    1
