@<TRIPOS>MOLECULE
*****
 30 29 0 0 0
SMALL
GASTEIGER

@<TRIPOS>ATOM
      1 C           1.0260    0.0959    0.0111 C.3     1  UNL1        0.0121
      2 C           2.5460    0.0959    0.0111 C.2     1  UNL1        0.2100
      3 O           3.1814    1.1638    0.2778 O.2     1  UNL1       -0.2761
      4 N           3.2810   -1.1392   -0.2973 N.am    1  UNL1       -0.3133
      5 C           4.7510   -1.1392   -0.2973 C.3     1  UNL1        0.0350
      6 C           5.2576   -2.5296   -0.6445 C.3     1  UNL1        0.0632
      7 O           6.6776   -2.5296   -0.6445 O.3     1  UNL1       -0.3760
      8 C           7.1510   -3.8285   -0.9689 C.3     1  UNL1        0.0711
      9 C           8.6710   -3.8285   -0.9689 C.3     1  UNL1        0.0711
     10 O           9.1443   -5.1274   -1.2933 O.3     1  UNL1       -0.3752
     11 C          10.5643   -5.1274   -1.2933 C.3     1  UNL1        0.0708
     12 C          11.0709   -6.5178   -1.6405 C.3     1  UNL1        0.0676
     13 O          12.4909   -6.5178   -1.6405 O.3     1  UNL1       -0.3927
     14 H           0.6693    1.0747    0.2555 H       1  UNL1        0.0322
     15 H           0.6693   -0.6051    0.7365 H       1  UNL1        0.0322
     16 H           0.6693   -0.1818   -0.9587 H       1  UNL1        0.0322
     17 H           2.7887   -1.9664   -0.5039 H       1  UNL1        0.1488
     18 H           5.1076   -0.8615    0.6725 H       1  UNL1        0.0484
     19 H           5.1076   -0.4382   -1.0227 H       1  UNL1        0.0484
     20 H           4.9010   -2.8073   -1.6144 H       1  UNL1        0.0575
     21 H           4.9010   -3.2306    0.0809 H       1  UNL1        0.0575
     22 H           6.7943   -4.1062   -1.9387 H       1  UNL1        0.0583
     23 H           6.7943   -4.5295   -0.2435 H       1  UNL1        0.0583
     24 H           9.0276   -3.5508    0.0009 H       1  UNL1        0.0583
     25 H           9.0276   -3.1274   -1.6943 H       1  UNL1        0.0583
     26 H          10.9210   -4.8497   -0.3234 H       1  UNL1        0.0583
     27 H          10.9210   -4.4263   -2.0187 H       1  UNL1        0.0583
     28 H          10.7143   -6.7955   -2.6103 H       1  UNL1        0.0580
     29 H          10.7143   -7.2188   -0.9151 H       1  UNL1        0.0580
     30 H          12.8143   -5.8822   -2.2981 H       1  UNL1        0.2095
@<TRIPOS>BOND
     1     1     2    1
     2     2     3    2
     3     2     4   am
     4     4     5    1
     5     5     6    1
     6     6     7    1
     7     7     8    1
     8     8     9    1
     9     9    10    1
    10    10    11    1
    11    11    12    1
    12    12    13    1
    13     1    14    1
    14     1    15    1
    15     1    16    1
    16     4    17    1
    17     5    18    1
    18     5    19    1
    19     6    20    1
    20     6    21    1
    21     8    22    1
    22     8    23    1
    23     9    24    1
    24     9    25    1
    25    11    26    1
    26    11    27    1
    27    12    28    1
    28    12    29    1
    29    13    30    1
