@<TRIPOS>MOLECULE
*****
 18 17 0 0 0
SMALL
GASTEIGER

@<TRIPOS>ATOM
      1 C           1.0455   -0.0292    0.0841 C.3     1  UNL1       -0.0652
      2 C           2.5655   -0.0292    0.0841 C.3     1  UNL1       -0.0545
      3 C           3.0721   -1.1276   -0.8363 C.3     1  UNL1       -0.0376
      4 C           4.5921   -1.1276   -0.8363 C.3     1  UNL1        0.0113
      5 N           5.0821   -2.1899   -1.7264 N.am    1  UNL1       -0.3179
      6 C           6.5274   -2.3958   -1.8989 C.2     1  UNL1        0.1999
      7 O           6.9510   -3.3142   -2.6685 O.2     1  UNL1       -0.2795
      8 H           0.6888    0.7440    0.7321 H       1  UNL1        0.0230
      9 H           0.6888   -0.9770    0.4298 H       1  UNL1        0.0230
     10 H           0.6888    0.1453   -0.9095 H       1  UNL1        0.0230
     11 H           2.9221   -0.2037    1.0777 H       1  UNL1        0.0263
     12 H           2.9221    0.9185   -0.2615 H       1  UNL1        0.0263
     13 H           2.7155   -0.9531   -1.8299 H       1  UNL1        0.0280
     14 H           2.7155   -2.0754   -0.4906 H       1  UNL1        0.0280
     15 H           4.9488   -1.3021    0.1573 H       1  UNL1        0.0462
     16 H           4.9488   -0.1799   -1.1820 H       1  UNL1        0.0462
     17 H           4.4424   -2.7635   -2.2070 H       1  UNL1        0.1484
     18 H           7.1980   -1.7946   -1.3952 H       1  UNL1        0.1251
@<TRIPOS>BOND
     1     1     2    1
     2     2     3    1
     3     3     4    1
     4     4     5    1
     5     5     6   am
     6     6     7    2
     7     1     8    1
     8     1     9    1
     9     1    10    1
    10     2    11    1
    11     2    12    1
    12     3    13    1
    13     3    14    1
    14     4    15    1
    15     4    16    1
    16     5    17    1
    17     6    18    1
