@<TRIPOS>MOLECULE
*****
 28 27 0 0 0
SMALL
GASTEIGER

@<TRIPOS>ATOM
      1 C           0.9644    0.0848    0.0392 C.3     1  UNL1       -0.0653
      2 C           2.4844    0.0848    0.0392 C.3     1  UNL1       -0.0559
      3 C           2.9910    1.4761   -0.3046 C.3     1  UNL1       -0.0533
      4 C           4.5110    1.4761   -0.3046 C.3     1  UNL1       -0.0517
      5 C           5.0177    2.8673   -0.6484 C.3     1  UNL1       -0.0374
      6 C           6.5377    2.8673   -0.6484 C.3     1  UNL1        0.0117
      7 N           7.0277    4.2128   -0.9809 N.am    1  UNL1       -0.3134
      8 C           8.4729    4.4735   -1.0453 C.2     1  UNL1        0.2385
      9 O           9.2988    3.5358   -0.8136 O.2     1  UNL1       -0.2733
     10 C           8.9796    5.8648   -1.3891 C.3     1  UNL1        0.1202
     11 O          10.3996    5.8648   -1.3891 O.3     1  UNL1       -0.3858
     12 H           0.6077   -0.8945    0.2812 H       1  UNL1        0.0230
     13 H           0.6077    0.3649   -0.9300 H       1  UNL1        0.0230
     14 H           0.6077    0.7841    0.7663 H       1  UNL1        0.0230
     15 H           2.8410   -0.6144   -0.6880 H       1  UNL1        0.0263
     16 H           2.8410   -0.1953    1.0083 H       1  UNL1        0.0263
     17 H           2.6344    2.1753    0.4225 H       1  UNL1        0.0265
     18 H           2.6344    1.7562   -1.2738 H       1  UNL1        0.0265
     19 H           4.8677    0.7768   -1.0318 H       1  UNL1        0.0266
     20 H           4.8677    1.1960    0.6645 H       1  UNL1        0.0266
     21 H           4.6610    3.5665    0.0787 H       1  UNL1        0.0280
     22 H           4.6610    3.1474   -1.6175 H       1  UNL1        0.0280
     23 H           6.8944    2.1680   -1.3755 H       1  UNL1        0.0462
     24 H           6.8944    2.5872    0.3207 H       1  UNL1        0.0462
     25 H           6.3879    4.9392   -1.1604 H       1  UNL1        0.1487
     26 H           8.6229    6.5640   -0.6619 H       1  UNL1        0.0654
     27 H           8.6229    6.1449   -2.3582 H       1  UNL1        0.0654
     28 H          10.7229    5.6108   -0.5105 H       1  UNL1        0.2100
@<TRIPOS>BOND
     1     1     2    1
     2     2     3    1
     3     3     4    1
     4     4     5    1
     5     5     6    1
     6     6     7    1
     7     7     8   am
     8     8     9    2
     9     8    10    1
    10    10    11    1
    11     1    12    1
    12     1    13    1
    13     1    14    1
    14     2    15    1
    15     2    16    1
    16     3    17    1
    17     3    18    1
    18     4    19    1
    19     4    20    1
    20     5    21    1
    21     5    22    1
    22     6    23    1
    23     6    24    1
    24     7    25    1
    25    10    26    1
    26    10    27    1
    27    11    28    1
