@<TRIPOS>MOLECULE
*****
 58 58 0 0 0
SMALL
GASTEIGER

@<TRIPOS>ATOM
      1 N           0.9938    0.0240    0.0969 N.3     1  UNL1       -0.3279
      2 C           2.4638    0.0240    0.0969 C.3     1  UNL1        0.0166
      3 C           2.9705   -1.4082    0.0460 C.3     1  UNL1        0.0600
      4 O           4.3905   -1.4082    0.0460 O.3     1  UNL1       -0.3763
      5 C           4.8638   -2.7461   -0.0014 C.3     1  UNL1        0.0711
      6 C           6.3838   -2.7461   -0.0014 C.3     1  UNL1        0.0711
      7 O           6.8572   -4.0840   -0.0489 O.3     1  UNL1       -0.3752
      8 C           8.2772   -4.0840   -0.0489 C.3     1  UNL1        0.0711
      9 C           8.7838   -5.5162   -0.0998 C.3     1  UNL1        0.0711
     10 O          10.2038   -5.5162   -0.0998 O.3     1  UNL1       -0.3752
     11 C          10.6772   -6.8542   -0.1473 C.3     1  UNL1        0.0711
     12 C          12.1972   -6.8542   -0.1473 C.3     1  UNL1        0.0711
     13 O          12.6705   -8.1921   -0.1948 O.3     1  UNL1       -0.3752
     14 C          14.0905   -8.1921   -0.1948 C.3     1  UNL1        0.0711
     15 C          14.5971   -9.6243   -0.2456 C.3     1  UNL1        0.0711
     16 O          16.0171   -9.6243   -0.2456 O.3     1  UNL1       -0.3752
     17 C          16.4905  -10.9622   -0.2931 C.3     1  UNL1        0.0711
     18 C          18.0105  -10.9622   -0.2931 C.3     1  UNL1        0.0711
     19 O          18.4838  -12.3002   -0.3406 O.3     1  UNL1       -0.3757
     20 C          19.9038  -12.3002   -0.3406 C.3     1  UNL1        0.0673
     21 C          20.4105  -13.7323   -0.3914 C.3     1  UNL1        0.0665
     22 N          21.8805  -13.7323   -0.3914 N.ar    1  UNL1       -0.2495
     23 C          22.5769  -14.9378   -0.4342 C.ar    1  UNL1        0.0455
     24 C          24.0171  -14.9378   -0.4342 C.ar    1  UNL1        0.0693
     25 N          24.7135  -16.1433   -0.4770 N.ar    1  UNL1       -0.1380
     26 N          22.5532  -12.5679   -0.3501 N.ar    1  UNL1       -0.0657
     27 H           0.6538    0.9851    0.1310 H       1  UNL1        0.1183
     28 H           0.6538   -0.4861    0.9121 H       1  UNL1        0.1183
     29 H           2.8205    0.4971    0.9879 H       1  UNL1        0.0444
     30 H           2.8205    0.5591   -0.7583 H       1  UNL1        0.0444
     31 H           2.6138   -1.8812   -0.8450 H       1  UNL1        0.0572
     32 H           2.6138   -1.9432    0.9012 H       1  UNL1        0.0572
     33 H           4.5072   -3.2192   -0.8924 H       1  UNL1        0.0583
     34 H           4.5072   -3.2812    0.8538 H       1  UNL1        0.0583
     35 H           6.7405   -2.2730    0.8895 H       1  UNL1        0.0583
     36 H           6.7405   -2.2110   -0.8567 H       1  UNL1        0.0583
     37 H           8.6338   -3.6110    0.8421 H       1  UNL1        0.0583
     38 H           8.6338   -3.5490   -0.9041 H       1  UNL1        0.0583
     39 H           8.4272   -5.9893   -0.9908 H       1  UNL1        0.0583
     40 H           8.4272   -6.0513    0.7554 H       1  UNL1        0.0583
     41 H          10.3205   -7.3273   -1.0383 H       1  UNL1        0.0583
     42 H          10.3205   -7.3892    0.7079 H       1  UNL1        0.0583
     43 H          12.5538   -6.3811    0.7437 H       1  UNL1        0.0583
     44 H          12.5538   -6.3191   -1.0025 H       1  UNL1        0.0583
     45 H          14.4471   -7.7190    0.6962 H       1  UNL1        0.0583
     46 H          14.4471   -7.6570   -1.0500 H       1  UNL1        0.0583
     47 H          14.2405  -10.0974   -1.1366 H       1  UNL1        0.0583
     48 H          14.2405  -10.1594    0.6096 H       1  UNL1        0.0583
     49 H          16.1338  -11.4353   -1.1841 H       1  UNL1        0.0583
     50 H          16.1338  -11.4973    0.5621 H       1  UNL1        0.0583
     51 H          18.3671  -10.4891    0.5979 H       1  UNL1        0.0583
     52 H          18.3671  -10.4272   -1.1483 H       1  UNL1        0.0583
     53 H          20.2605  -11.8271    0.5504 H       1  UNL1        0.0578
     54 H          20.2605  -11.7651   -1.1958 H       1  UNL1        0.0578
     55 H          20.0538  -14.2054   -1.2824 H       1  UNL1        0.0532
     56 H          20.0538  -14.2674    0.4638 H       1  UNL1        0.0532
     57 H          22.0609  -15.8310   -0.4659 H       1  UNL1        0.0842
     58 H          24.5331  -14.0446   -0.4025 H       1  UNL1        0.0864
@<TRIPOS>BOND
     1     1     2    1
     2     2     3    1
     3     3     4    1
     4     4     5    1
     5     5     6    1
     6     6     7    1
     7     7     8    1
     8     8     9    1
     9     9    10    1
    10    10    11    1
    11    11    12    1
    12    12    13    1
    13    13    14    1
    14    14    15    1
    15    15    16    1
    16    16    17    1
    17    17    18    1
    18    18    19    1
    19    19    20    1
    20    20    21    1
    21    21    22    1
    22    22    23   ar
    23    23    24   ar
    24    24    25   ar
    25    25    26   ar
    26    22    26   ar
    27     1    27    1
    28     1    28    1
    29     2    29    1
    30     2    30    1
    31     3    31    1
    32     3    32    1
    33     5    33    1
    34     5    34    1
    35     6    35    1
    36     6    36    1
    37     8    37    1
    38     8    38    1
    39     9    39    1
    40     9    40    1
    41    11    41    1
    42    11    42    1
    43    12    43    1
    44    12    44    1
    45    14    45    1
    46    14    46    1
    47    15    47    1
    48    15    48    1
    49    17    49    1
    50    17    50    1
    51    18    51    1
    52    18    52    1
    53    20    53    1
    54    20    54    1
    55    21    55    1
    56    21    56    1
    57    23    57    1
    58    24    58    1
