@<TRIPOS>MOLECULE
*****
 29 29 0 0 0
SMALL
GASTEIGER

@<TRIPOS>ATOM
      1 C           1.0417   -0.0587    0.0694 C.3     1  UNL1       -0.0622
      2 C           2.5617   -0.0587    0.0694 C.3     1  UNL1       -0.0215
      3 C           3.0684   -1.4813    0.2416 C.3     1  UNL1        0.0893
      4 O           4.4884   -1.4813    0.2416 O.3     1  UNL1       -0.4920
      5 C           5.1984   -2.7022    0.3893 C.ar    1  UNL1        0.1205
      6 C           6.6386   -2.7022    0.3893 C.ar    1  UNL1       -0.0193
      7 C           7.3587   -3.9404    0.5392 C.ar    1  UNL1       -0.0496
      8 C           8.7989   -3.9404    0.5392 C.ar    1  UNL1       -0.0052
      9 C           9.5589   -2.6336    0.3810 C.2     1  UNL1        0.0528
     10 N           8.9011   -1.5025    0.2441 N.2     1  UNL1       -0.1879
     11 N           9.6111   -0.2816    0.0964 N.am    1  UNL1       -0.2096
     12 C           8.8761    0.9822   -0.0566 C.2     1  UNL1        0.2192
     13 O           9.5115    2.0749   -0.1888 O.2     1  UNL1       -0.2778
     14 C           9.5190   -5.1786    0.6890 C.ar    1  UNL1       -0.0496
     15 C           4.4783   -3.9404    0.5392 C.ar    1  UNL1       -0.0193
     16 H           0.6851    0.9428   -0.0518 H       1  UNL1        0.0231
     17 H           0.6851   -0.4544    0.9973 H       1  UNL1        0.0231
     18 H           0.6851   -0.6644   -0.7373 H       1  UNL1        0.0231
     19 H           2.9184    0.5471    0.8761 H       1  UNL1        0.0295
     20 H           2.9184    0.3371   -0.8585 H       1  UNL1        0.0295
     21 H           2.7117   -2.0871   -0.5651 H       1  UNL1        0.0696
     22 H           2.7117   -1.8771    1.1695 H       1  UNL1        0.0696
     23 H           7.1546   -1.8149    0.2820 H       1  UNL1        0.0654
     24 H           6.8427   -4.8277    0.6466 H       1  UNL1        0.0625
     25 H          10.5909   -2.6336    0.3810 H       1  UNL1        0.0851
     26 H          10.5956   -0.2816    0.0964 H       1  UNL1        0.1770
     27 H           7.8441    0.9822   -0.0566 H       1  UNL1        0.1269
     28 H          10.3437   -5.7945    0.7636 H       1  UNL1        0.0625
     29 H           3.5287   -4.3416    0.5877 H       1  UNL1        0.0654
@<TRIPOS>BOND
     1     1     2    1
     2     2     3    1
     3     3     4    1
     4     4     5    1
     5     5     6   ar
     6     6     7   ar
     7     7     8   ar
     8     8     9    1
     9     9    10    2
    10    10    11    1
    11    11    12   am
    12    12    13    2
    13     8    14   ar
    14    14    15   ar
    15     5    15   ar
    16     1    16    1
    17     1    17    1
    18     1    18    1
    19     2    19    1
    20     2    20    1
    21     3    21    1
    22     3    22    1
    23     6    23    1
    24     7    24    1
    25     9    25    1
    26    11    26    1
    27    12    27    1
    28    14    28    1
    29    15    29    1
