@<TRIPOS>MOLECULE
*****
 12 11 0 0 0
SMALL
GASTEIGER

@<TRIPOS>ATOM
      1 C           0.9752    0.0962    0.0117 C.3     1  UNL1       -0.0416
      2 C           2.4952    0.0962    0.0117 C.3     1  UNL1        0.0445
      3 O           2.9685   -1.0985   -0.5926 O.3     1  UNL1       -0.3832
      4 C           4.3885   -1.0985   -0.5926 C.3     1  UNL1        0.0364
      5 H           0.6185    0.9964    0.4670 H       1  UNL1        0.0252
      6 H           0.6185   -0.7483    0.5636 H       1  UNL1        0.0252
      7 H           0.6185    0.0404   -0.9956 H       1  UNL1        0.0252
      8 H           2.8518    0.1519    1.0190 H       1  UNL1        0.0557
      9 H           2.8518    0.9406   -0.5402 H       1  UNL1        0.0557
     10 H           4.7451   -1.9987   -1.0479 H       1  UNL1        0.0523
     11 H           4.7452   -1.0427    0.4147 H       1  UNL1        0.0523
     12 H           4.7452   -0.2541   -1.1445 H       1  UNL1        0.0523
@<TRIPOS>BOND
     1     1     2    1
     2     2     3    1
     3     3     4    1
     4     1     5    1
     5     1     6    1
     6     1     7    1
     7     2     8    1
     8     2     9    1
     9     4    10    1
    10     4    11    1
    11     4    12    1
