@<TRIPOS>MOLECULE
*****
 34 34 0 0 0
SMALL
GASTEIGER

@<TRIPOS>ATOM
      1 C           1.0454   -0.0642   -0.0618 C.3     1  UNL1       -0.0416
      2 C           2.5654   -0.0642   -0.0618 C.3     1  UNL1        0.0449
      3 O           3.0387   -0.4361    1.2243 O.3     1  UNL1       -0.3782
      4 C           4.4587   -0.4361    1.2243 C.3     1  UNL1        0.0672
      5 C           4.9654   -0.8343    2.6009 C.3     1  UNL1        0.0665
      6 N           6.4354   -0.8343    2.6009 N.ar    1  UNL1       -0.2492
      7 C           7.1318   -1.1695    3.7596 C.ar    1  UNL1        0.0487
      8 C           8.5720   -1.1695    3.7596 C.ar    1  UNL1        0.0829
      9 C           9.3320   -0.8037    2.4951 C.3     1  UNL1       -0.0067
     10 C           8.3443   -0.4827    1.3853 C.3     1  UNL1       -0.0393
     11 C           9.1043   -0.1170    0.1208 C.3     1  UNL1        0.0241
     12 C           8.1165    0.2040   -0.9891 C.2     1  UNL1        0.2105
     13 N           6.6713    0.1294   -0.7310 N.am    1  UNL1       -0.3293
     14 O           8.5401    0.5369   -2.1401 O.2     1  UNL1       -0.2760
     15 N           9.2684   -1.5046    4.9184 N.ar    1  UNL1       -0.1345
     16 N           7.1081   -0.5106    1.4816 N.ar    1  UNL1       -0.0654
     17 H           0.6887    0.2161   -1.0309 H       1  UNL1        0.0252
     18 H           0.6887    0.6349    0.6655 H       1  UNL1        0.0252
     19 H           0.6887   -1.0436    0.1800 H       1  UNL1        0.0252
     20 H           2.9221    0.9152   -0.3036 H       1  UNL1        0.0557
     21 H           2.9221   -0.7633   -0.7891 H       1  UNL1        0.0557
     22 H           4.8154    0.5433    0.9825 H       1  UNL1        0.0578
     23 H           4.8154   -1.1353    0.4970 H       1  UNL1        0.0578
     24 H           4.6087   -1.8137    2.8427 H       1  UNL1        0.0532
     25 H           4.6087   -0.1352    3.3282 H       1  UNL1        0.0532
     26 H           6.6158   -1.4178    4.6182 H       1  UNL1        0.0845
     27 H           9.9472   -1.6272    2.1979 H       1  UNL1        0.0329
     28 H           9.9472    0.0513    2.6834 H       1  UNL1        0.0329
     29 H           7.7291    0.3408    1.6825 H       1  UNL1        0.0273
     30 H           7.7291   -1.3377    1.1970 H       1  UNL1        0.0273
     31 H           9.7194   -0.9405   -0.1764 H       1  UNL1        0.0358
     32 H           9.7194    0.7380    0.3090 H       1  UNL1        0.0358
     33 H           6.3431   -0.1285    0.1606 H       1  UNL1        0.1449
     34 H           6.0315    0.3373   -1.4499 H       1  UNL1        0.1449
@<TRIPOS>BOND
     1     1     2    1
     2     2     3    1
     3     3     4    1
     4     4     5    1
     5     5     6    1
     6     6     7   ar
     7     7     8   ar
     8     8     9    1
     9     9    10    1
    10    10    11    1
    11    11    12    1
    12    12    13   am
    13    12    14    2
    14     8    15   ar
    15    15    16   ar
    16     6    16   ar
    17     1    17    1
    18     1    18    1
    19     1    19    1
    20     2    20    1
    21     2    21    1
    22     4    22    1
    23     4    23    1
    24     5    24    1
    25     5    25    1
    26     7    26    1
    27     9    27    1
    28     9    28    1
    29    10    29    1
    30    10    30    1
    31    11    31    1
    32    11    32    1
    33    13    33    1
    34    13    34    1
