@<TRIPOS>MOLECULE
*****
 16 15 0 0 0
SMALL
GASTEIGER

@<TRIPOS>ATOM
      1 C           0.9202    0.0378   -0.0470 C.3     1  UNL1        0.0365
      2 O           2.3402    0.0378   -0.0470 O.3     1  UNL1       -0.3807
      3 C           2.8135    0.7349   -1.1899 C.3     1  UNL1        0.0706
      4 C           4.3335    0.7349   -1.1899 C.3     1  UNL1        0.0706
      5 O           4.8069    1.4321   -2.3329 O.3     1  UNL1       -0.3807
      6 C           6.2269    1.4321   -2.3329 C.3     1  UNL1        0.0365
      7 H           0.5635   -0.4875    0.8143 H       1  UNL1        0.0524
      8 H           0.5635   -0.4454   -0.9325 H       1  UNL1        0.0524
      9 H           0.5635    1.0463   -0.0226 H       1  UNL1        0.0524
     10 H           2.4569    1.7435   -1.1656 H       1  UNL1        0.0582
     11 H           2.4569    0.2518   -2.0755 H       1  UNL1        0.0582
     12 H           4.6902   -0.2736   -1.2143 H       1  UNL1        0.0582
     13 H           4.6902    1.2181   -0.3044 H       1  UNL1        0.0582
     14 H           6.5835    1.9574   -3.1941 H       1  UNL1        0.0524
     15 H           6.5835    0.4236   -2.3572 H       1  UNL1        0.0524
     16 H           6.5835    1.9153   -1.4473 H       1  UNL1        0.0524
@<TRIPOS>BOND
     1     1     2    1
     2     2     3    1
     3     3     4    1
     4     4     5    1
     5     5     6    1
     6     1     7    1
     7     1     8    1
     8     1     9    1
     9     3    10    1
    10     3    11    1
    11     4    12    1
    12     4    13    1
    13     6    14    1
    14     6    15    1
    15     6    16    1
