@<TRIPOS>MOLECULE
*****
 27 27 0 0 0
SMALL
GASTEIGER

@<TRIPOS>ATOM
      1 N           1.0455   -0.0297    0.0840 N.3     1  UNL1       -0.3299
      2 C           2.5155   -0.0297    0.0840 C.3     1  UNL1       -0.0057
      3 C           3.0222   -1.0713   -0.9002 C.3     1  UNL1       -0.0278
      4 C           4.5422   -1.0713   -0.9002 C.3     1  UNL1        0.0001
      5 N           5.0322   -2.0787   -1.8521 N.3     1  UNL1       -0.2999
      6 C           6.5022   -2.0787   -1.8521 C.3     1  UNL1        0.0115
      7 C           7.0088   -3.1203   -2.8363 C.3     1  UNL1        0.0087
      8 N           8.4788   -3.1203   -2.8363 N.3     1  UNL1       -0.3136
      9 C           8.9688   -4.1277   -3.7881 C.3     1  UNL1        0.0087
     10 C           4.5422   -1.7581   -3.2004 C.3     1  UNL1        0.0115
     11 H           0.7055    0.6693    0.7444 H       1  UNL1        0.1182
     12 H           0.7055   -0.9511    0.3591 H       1  UNL1        0.1182
     13 H           2.8722   -0.2630    1.0654 H       1  UNL1        0.0422
     14 H           2.8722    0.9370   -0.2046 H       1  UNL1        0.0422
     15 H           2.6655   -0.8379   -1.8817 H       1  UNL1        0.0290
     16 H           2.6655   -2.0379   -0.6116 H       1  UNL1        0.0290
     17 H           4.8988   -1.3047    0.0812 H       1  UNL1        0.0427
     18 H           4.8988   -0.1047   -1.1889 H       1  UNL1        0.0427
     19 H           6.8588   -2.3121   -0.8706 H       1  UNL1        0.0439
     20 H           6.8588   -1.1121   -2.1407 H       1  UNL1        0.0439
     21 H           6.6522   -2.8870   -3.8177 H       1  UNL1        0.0437
     22 H           6.6521   -4.0870   -2.5477 H       1  UNL1        0.0437
     23 H           8.8188   -3.3428   -1.9007 H       1  UNL1        0.1220
     24 H           9.1056   -5.1519   -3.5103 H       1  UNL1        0.0437
     25 H           9.7392   -4.2680   -4.5173 H       1  UNL1        0.0437
     26 H           3.6614   -2.2616   -3.5404 H       1  UNL1        0.0439
     27 H           4.2275   -0.8143   -3.5944 H       1  UNL1        0.0439
@<TRIPOS>BOND
     1     1     2    1
     2     2     3    1
     3     3     4    1
     4     4     5    1
     5     5     6    1
     6     6     7    1
     7     7     8    1
     8     8     9    1
     9     9    10    1
    10     5    10    1
    11     1    11    1
    12     1    12    1
    13     2    13    1
    14     2    14    1
    15     3    15    1
    16     3    16    1
    17     4    17    1
    18     4    18    1
    19     6    19    1
    20     6    20    1
    21     7    21    1
    22     7    22    1
    23     8    23    1
    24     9    24    1
    25     9    25    1
    26    10    26    1
    27    10    27    1
