@<TRIPOS>MOLECULE
*****
 37 37 0 0 0
SMALL
GASTEIGER

@<TRIPOS>ATOM
      1 C           0.9341   -0.0153    0.0736 C.3     1  UNL1       -0.0632
      2 C           2.4541   -0.0153    0.0736 C.3     1  UNL1       -0.0323
      3 C           2.9607   -0.6867   -1.1925 C.3     1  UNL1        0.0474
      4 O           4.3807   -0.6867   -1.1925 O.3     1  UNL1       -0.3798
      5 C           4.8540   -1.3139   -2.3753 C.3     1  UNL1        0.0477
      6 C           6.3740   -1.3139   -2.3753 C.3     1  UNL1       -0.0294
      7 C           6.8807   -1.9852   -3.6414 C.3     1  UNL1       -0.0493
      8 C           8.4007   -1.9852   -3.6414 C.3     1  UNL1       -0.0332
      9 C           8.9074   -2.6566   -4.9074 C.3     1  UNL1        0.0432
     10 N          10.3774   -2.6566   -4.9074 N.ar    1  UNL1       -0.2510
     11 C          11.0738   -3.2217   -5.9731 C.ar    1  UNL1        0.0579
     12 C          12.5140   -3.2217   -5.9731 C.ar    1  UNL1        0.1666
     13 C          13.2740   -2.6050   -4.8101 C.2     1  UNL1        0.2632
     14 N          14.7440   -2.6050   -4.8101 N.am    1  UNL1       -0.3240
     15 O          12.6385   -2.0894   -3.8378 O.2     1  UNL1       -0.2686
     16 N          13.2104   -3.7868   -7.0388 N.ar    1  UNL1       -0.1248
     17 N          11.0501   -2.1107   -3.8780 N.ar    1  UNL1       -0.0650
     18 H           0.5774    0.4573    0.9649 H       1  UNL1        0.0230
     19 H           0.5774   -1.0235    0.0373 H       1  UNL1        0.0230
     20 H           0.5774    0.5202   -0.7813 H       1  UNL1        0.0230
     21 H           2.8107   -0.5509    0.9285 H       1  UNL1        0.0285
     22 H           2.8107    0.9928    0.1099 H       1  UNL1        0.0285
     23 H           2.6040   -0.1511   -2.0474 H       1  UNL1        0.0560
     24 H           2.6040   -1.6948   -1.2288 H       1  UNL1        0.0560
     25 H           4.4974   -0.7783   -3.2302 H       1  UNL1        0.0560
     26 H           4.4974   -2.3220   -2.4116 H       1  UNL1        0.0560
     27 H           6.7307   -1.8494   -1.5204 H       1  UNL1        0.0287
     28 H           6.7307   -0.3057   -2.3389 H       1  UNL1        0.0287
     29 H           6.5240   -1.4497   -4.4963 H       1  UNL1        0.0267
     30 H           6.5240   -2.9934   -3.6777 H       1  UNL1        0.0267
     31 H           8.7574   -2.5208   -2.7864 H       1  UNL1        0.0283
     32 H           8.7574   -0.9771   -3.6050 H       1  UNL1        0.0283
     33 H           8.5507   -2.1210   -5.7624 H       1  UNL1        0.0509
     34 H           8.5507   -3.6647   -4.9438 H       1  UNL1        0.0509
     35 H          10.5578   -3.6404   -6.7627 H       1  UNL1        0.0850
     36 H          15.2362   -3.0044   -5.5634 H       1  UNL1        0.1453
     37 H          15.2362   -2.2056   -4.0569 H       1  UNL1        0.1453
@<TRIPOS>BOND
     1     1     2    1
     2     2     3    1
     3     3     4    1
     4     4     5    1
     5     5     6    1
     6     6     7    1
     7     7     8    1
     8     8     9    1
     9     9    10    1
    10    10    11   ar
    11    11    12   ar
    12    12    13    1
    13    13    14   am
    14    13    15    2
    15    12    16   ar
    16    16    17   ar
    17    10    17   ar
    18     1    18    1
    19     1    19    1
    20     1    20    1
    21     2    21    1
    22     2    22    1
    23     3    23    1
    24     3    24    1
    25     5    25    1
    26     5    26    1
    27     6    27    1
    28     6    28    1
    29     7    29    1
    30     7    30    1
    31     8    31    1
    32     8    32    1
    33     9    33    1
    34     9    34    1
    35    11    35    1
    36    14    36    1
    37    14    37    1
