@<TRIPOS>MOLECULE
*****
 38 37 0 0 0
SMALL
GASTEIGER

@<TRIPOS>ATOM
      1 C           1.0629   -0.0770   -0.0103 C.3     1  UNL1       -0.0570
      2 C           2.5829   -0.0770   -0.0103 C.3     1  UNL1        0.0211
      3 C           3.0896   -0.3888    1.3885 C.2     1  UNL1        0.2128
      4 O           2.2637   -0.5989    2.3313 O.2     1  UNL1       -0.2758
      5 N           4.5348   -0.4472    1.6506 N.am    1  UNL1       -0.3131
      6 C           5.0248   -0.7487    3.0034 C.3     1  UNL1        0.0350
      7 C           6.5448   -0.7487    3.0034 C.3     1  UNL1        0.0632
      8 O           7.0182   -1.0399    4.3101 O.3     1  UNL1       -0.3760
      9 C           8.4382   -1.0399    4.3101 C.3     1  UNL1        0.0711
     10 C           8.9448   -1.3517    5.7089 C.3     1  UNL1        0.0711
     11 O          10.3648   -1.3517    5.7089 O.3     1  UNL1       -0.3752
     12 C          10.8382   -1.6429    7.0156 C.3     1  UNL1        0.0711
     13 C          12.3582   -1.6429    7.0156 C.3     1  UNL1        0.0715
     14 O          12.8315   -1.9342    8.3223 O.3     1  UNL1       -0.3703
     15 C          14.2515   -1.9342    8.3223 C.3     1  UNL1        0.1028
     16 C          14.7581   -2.2459    9.7211 C.2     1  UNL1        0.1458
     17 O          16.0076   -2.2964    9.9477 O.2     1  UNL1       -0.2986
     18 H           0.7063    0.1424   -0.9949 H       1  UNL1        0.0234
     19 H           0.7063    0.6660    0.6721 H       1  UNL1        0.0234
     20 H           0.7063   -1.0395    0.2920 H       1  UNL1        0.0234
     21 H           2.9396    0.8854   -0.3126 H       1  UNL1        0.0356
     22 H           2.9396   -0.8200   -0.6927 H       1  UNL1        0.0356
     23 H           5.1746   -0.2844    0.9203 H       1  UNL1        0.1488
     24 H           4.6682   -1.7112    3.3057 H       1  UNL1        0.0484
     25 H           4.6682   -0.0057    3.6858 H       1  UNL1        0.0484
     26 H           6.9015    0.2138    2.7011 H       1  UNL1        0.0575
     27 H           6.9015   -1.4917    2.3210 H       1  UNL1        0.0575
     28 H           8.7948   -0.0775    4.0078 H       1  UNL1        0.0583
     29 H           8.7948   -1.7829    3.6277 H       1  UNL1        0.0583
     30 H           8.5882   -2.3141    6.0111 H       1  UNL1        0.0583
     31 H           8.5882   -0.6087    6.3912 H       1  UNL1        0.0583
     32 H          10.4815   -2.6054    7.3179 H       1  UNL1        0.0583
     33 H          10.4815   -0.8999    7.6980 H       1  UNL1        0.0583
     34 H          12.7148   -0.6805    6.7133 H       1  UNL1        0.0583
     35 H          12.7148   -2.3859    6.3332 H       1  UNL1        0.0583
     36 H          14.6081   -0.9717    8.0201 H       1  UNL1        0.0636
     37 H          14.6081   -2.6772    7.6399 H       1  UNL1        0.0636
     38 H          14.0875   -2.4165   10.4867 H       1  UNL1        0.1051
@<TRIPOS>BOND
     1     1     2    1
     2     2     3    1
     3     3     4    2
     4     3     5   am
     5     5     6    1
     6     6     7    1
     7     7     8    1
     8     8     9    1
     9     9    10    1
    10    10    11    1
    11    11    12    1
    12    12    13    1
    13    13    14    1
    14    14    15    1
    15    15    16    1
    16    16    17    2
    17     1    18    1
    18     1    19    1
    19     1    20    1
    20     2    21    1
    21     2    22    1
    22     5    23    1
    23     6    24    1
    24     6    25    1
    25     7    26    1
    26     7    27    1
    27     9    28    1
    28     9    29    1
    29    10    30    1
    30    10    31    1
    31    12    32    1
    32    12    33    1
    33    13    34    1
    34    13    35    1
    35    15    36    1
    36    15    37    1
    37    16    38    1
