@<TRIPOS>MOLECULE
*****
 9 8 0 0 0
SMALL
GASTEIGER

@<TRIPOS>ATOM
      1 C           1.0333    0.0325    0.0885 C.3     1  UNL1       -0.0418
      2 C           2.5533    0.0325    0.0885 C.3     1  UNL1        0.0414
      3 O           3.0267    0.8295   -0.9872 O.3     1  UNL1       -0.3953
      4 H           0.6767   -0.5680    0.8991 H       1  UNL1        0.0252
      5 H           0.6767   -0.3692   -0.8369 H       1  UNL1        0.0252
      6 H           0.6767    1.0348    0.2033 H       1  UNL1        0.0252
      7 H           2.9100   -0.9697   -0.0263 H       1  UNL1        0.0554
      8 H           2.9100    0.4342    1.0139 H       1  UNL1        0.0554
      9 H           2.7033    0.4653   -1.8261 H       1  UNL1        0.2094
@<TRIPOS>BOND
     1     1     2    1
     2     2     3    1
     3     1     4    1
     4     1     5    1
     5     1     6    1
     6     2     7    1
     7     2     8    1
     8     3     9    1
