@<TRIPOS>MOLECULE
*****
 67 67 0 0 0
SMALL
GASTEIGER

@<TRIPOS>ATOM
      1 C           0.9356    0.0453    0.0617 C.3     1  UNL1       -0.0649
      2 C           2.4556    0.0453    0.0617 C.3     1  UNL1       -0.0504
      3 C           2.9623    0.7648   -1.1778 C.3     1  UNL1       -0.0074
      4 C           4.4823    0.7648   -1.1778 C.ar    1  UNL1        0.0828
      5 C           5.2024    1.3909   -2.2564 C.ar    1  UNL1        0.0487
      6 N           6.5952    1.3909   -2.2564 N.ar    1  UNL1       -0.2492
      7 C           7.3302    0.7518   -1.1554 C.3     1  UNL1        0.0665
      8 C           6.3425    0.1718   -0.1562 C.3     1  UNL1        0.0673
      9 O           7.0525   -0.4455    0.9073 O.3     1  UNL1       -0.3757
     10 C           6.1297   -0.9874    1.8408 C.3     1  UNL1        0.0711
     11 C           6.8897   -1.6482    2.9792 C.3     1  UNL1        0.0711
     12 O           5.9669   -2.1900    3.9127 O.3     1  UNL1       -0.3752
     13 C           6.6769   -2.8074    4.9762 C.3     1  UNL1        0.0711
     14 C           5.6892   -3.3874    5.9754 C.3     1  UNL1        0.0711
     15 O           6.3992   -4.0047    7.0390 O.3     1  UNL1       -0.3752
     16 C           5.4764   -4.5466    7.9724 C.3     1  UNL1        0.0711
     17 C           6.2364   -5.2074    9.1109 C.3     1  UNL1        0.0711
     18 O           5.3137   -5.7493   10.0443 O.3     1  UNL1       -0.3752
     19 C           6.0237   -6.3666   11.1079 C.3     1  UNL1        0.0711
     20 C           5.0359   -6.9466   12.1071 C.3     1  UNL1        0.0711
     21 O           5.7459   -7.5640   13.1707 O.3     1  UNL1       -0.3752
     22 C           4.8232   -8.1058   14.1041 C.3     1  UNL1        0.0711
     23 C           5.5832   -8.7666   15.2426 C.3     1  UNL1        0.0711
     24 O           4.6604   -9.3085   16.1760 O.3     1  UNL1       -0.3763
     25 C           5.3704   -9.9258   17.2396 C.3     1  UNL1        0.0600
     26 C           4.3827  -10.5058   18.2388 C.3     1  UNL1        0.0166
     27 N           5.1177  -11.1449   19.3398 N.3     1  UNL1       -0.3279
     28 N           7.2679    1.9759   -3.2642 N.ar    1  UNL1       -0.0654
     29 N           5.1787    0.1592   -0.1345 N.ar    1  UNL1       -0.1345
     30 H           0.5790   -0.4611    0.9341 H       1  UNL1        0.0230
     31 H           0.5790   -0.4570   -0.8132 H       1  UNL1        0.0230
     32 H           0.5790    1.0541    0.0640 H       1  UNL1        0.0230
     33 H           2.8123   -0.9635    0.0593 H       1  UNL1        0.0266
     34 H           2.8123    0.5477    0.9365 H       1  UNL1        0.0266
     35 H           2.6056    1.7736   -1.1754 H       1  UNL1        0.0329
     36 H           2.6056    0.2624   -2.0526 H       1  UNL1        0.0329
     37 H           4.6864    1.8396   -3.0294 H       1  UNL1        0.0845
     38 H           7.9454    1.4789   -0.6678 H       1  UNL1        0.0532
     39 H           7.9454   -0.0322   -1.5450 H       1  UNL1        0.0532
     40 H           5.7273   -0.5553   -0.6439 H       1  UNL1        0.0578
     41 H           5.7273    0.9559    0.2333 H       1  UNL1        0.0578
     42 H           5.5146   -1.7145    1.3532 H       1  UNL1        0.0583
     43 H           5.5146   -0.2033    2.2303 H       1  UNL1        0.0583
     44 H           7.5049   -0.9211    3.4668 H       1  UNL1        0.0583
     45 H           7.5049   -2.4322    2.5897 H       1  UNL1        0.0583
     46 H           7.2921   -2.0803    5.4638 H       1  UNL1        0.0583
     47 H           7.2921   -3.5914    4.5867 H       1  UNL1        0.0583
     48 H           5.0740   -4.1145    5.4878 H       1  UNL1        0.0583
     49 H           5.0740   -2.6033    6.3650 H       1  UNL1        0.0583
     50 H           4.8613   -5.2737    7.4848 H       1  UNL1        0.0583
     51 H           4.8613   -3.7625    8.3620 H       1  UNL1        0.0583
     52 H           6.8516   -4.4803    9.5985 H       1  UNL1        0.0583
     53 H           6.8516   -5.9915    8.7213 H       1  UNL1        0.0583
     54 H           6.6388   -5.6395   11.5955 H       1  UNL1        0.0583
     55 H           6.6388   -7.1506   10.7183 H       1  UNL1        0.0583
     56 H           4.4208   -7.6737   11.6195 H       1  UNL1        0.0583
     57 H           4.4208   -6.1626   12.4967 H       1  UNL1        0.0583
     58 H           4.2080   -8.8329   13.6165 H       1  UNL1        0.0583
     59 H           4.2080   -7.3218   14.4937 H       1  UNL1        0.0583
     60 H           6.1983   -8.0395   15.7302 H       1  UNL1        0.0583
     61 H           6.1983   -9.5507   14.8530 H       1  UNL1        0.0583
     62 H           5.9856   -9.1987   17.7272 H       1  UNL1        0.0572
     63 H           5.9856  -10.7099   16.8500 H       1  UNL1        0.0572
     64 H           3.7675  -11.2329   17.7511 H       1  UNL1        0.0444
     65 H           3.7675   -9.7218   18.6283 H       1  UNL1        0.0444
     66 H           5.7041  -11.8923   18.9684 H       1  UNL1        0.1183
     67 H           4.4548  -11.5341   20.0103 H       1  UNL1        0.1183
@<TRIPOS>BOND
     1     1     2    1
     2     2     3    1
     3     3     4    1
     4     4     5   ar
     5     5     6   ar
     6     6     7    1
     7     7     8    1
     8     8     9    1
     9     9    10    1
    10    10    11    1
    11    11    12    1
    12    12    13    1
    13    13    14    1
    14    14    15    1
    15    15    16    1
    16    16    17    1
    17    17    18    1
    18    18    19    1
    19    19    20    1
    20    20    21    1
    21    21    22    1
    22    22    23    1
    23    23    24    1
    24    24    25    1
    25    25    26    1
    26    26    27    1
    27     6    28   ar
    28    28    29   ar
    29     4    29   ar
    30     1    30    1
    31     1    31    1
    32     1    32    1
    33     2    33    1
    34     2    34    1
    35     3    35    1
    36     3    36    1
    37     5    37    1
    38     7    38    1
    39     7    39    1
    40     8    40    1
    41     8    41    1
    42    10    42    1
    43    10    43    1
    44    11    44    1
    45    11    45    1
    46    13    46    1
    47    13    47    1
    48    14    48    1
    49    14    49    1
    50    16    50    1
    51    16    51    1
    52    17    52    1
    53    17    53    1
    54    19    54    1
    55    19    55    1
    56    20    56    1
    57    20    57    1
    58    22    58    1
    59    22    59    1
    60    23    60    1
    61    23    61    1
    62    25    62    1
    63    25    63    1
    64    26    64    1
    65    26    65    1
    66    27    66    1
    67    27    67    1
