@<TRIPOS>MOLECULE
*****
 45 44 0 0 0
SMALL
GASTEIGER

@<TRIPOS>ATOM
      1 C           0.9153    0.0177   -0.0501 C.3     1  UNL1        0.0032
      2 N           2.3853    0.0177   -0.0501 N.am    1  UNL1       -0.3023
      3 C           3.1203   -0.0286   -1.3223 C.3     1  UNL1        0.0378
      4 C           2.1325   -0.0706   -2.4769 C.3     1  UNL1        0.0635
      5 O           2.8425   -0.1152   -3.7058 O.3     1  UNL1       -0.3760
      6 C           1.9198   -0.1544   -4.7844 C.3     1  UNL1        0.0711
      7 C           2.6798   -0.2023   -6.0999 C.3     1  UNL1        0.0711
      8 O           1.7570   -0.2415   -7.1785 O.3     1  UNL1       -0.3752
      9 C           2.4670   -0.2861   -8.4075 C.3     1  UNL1        0.0711
     10 C           1.4793   -0.3281   -9.5620 C.3     1  UNL1        0.0711
     11 O           2.1893   -0.3728  -10.7910 O.3     1  UNL1       -0.3752
     12 C           1.2665   -0.4120  -11.8696 C.3     1  UNL1        0.0708
     13 C           2.0265   -0.4598  -13.1850 C.3     1  UNL1        0.0676
     14 O           1.1037   -0.4990  -14.2636 O.3     1  UNL1       -0.3927
     15 C           3.1203    0.0639    1.2221 C.2     1  UNL1        0.2166
     16 O           2.4848    0.1039    2.3220 O.2     1  UNL1       -0.2756
     17 C           4.6403    0.0639    1.2221 C.3     1  UNL1        0.0364
     18 C           5.1469    0.1160    2.6542 C.3     1  UNL1        0.0014
     19 N           6.6169    0.1160    2.6542 N.3     1  UNL1       -0.3295
     20 H           0.5586   -0.0190   -1.0583 H       1  UNL1        0.0428
     21 H           0.5586    0.9091    0.4222 H       1  UNL1        0.0428
     22 H           0.5586   -0.8371    0.4857 H       1  UNL1        0.0428
     23 H           3.7354   -0.9037   -1.3472 H       1  UNL1        0.0487
     24 H           3.7354    0.8424   -1.4107 H       1  UNL1        0.0487
     25 H           1.5174    0.8046   -2.4520 H       1  UNL1        0.0575
     26 H           1.5174   -0.9416   -2.3885 H       1  UNL1        0.0575
     27 H           1.3046    0.7207   -4.7595 H       1  UNL1        0.0583
     28 H           1.3046   -1.0254   -4.6960 H       1  UNL1        0.0583
     29 H           3.2949   -1.0774   -6.1248 H       1  UNL1        0.0583
     30 H           3.2949    0.6688   -6.1883 H       1  UNL1        0.0583
     31 H           3.0822   -1.1613   -8.4324 H       1  UNL1        0.0583
     32 H           3.0822    0.5849   -8.4958 H       1  UNL1        0.0583
     33 H           0.8641    0.5470   -9.5371 H       1  UNL1        0.0583
     34 H           0.8641   -1.1991   -9.4736 H       1  UNL1        0.0583
     35 H           0.6513    0.4631  -11.8446 H       1  UNL1        0.0583
     36 H           0.6513   -1.2830  -11.7812 H       1  UNL1        0.0583
     37 H           2.6417   -1.3349  -13.2100 H       1  UNL1        0.0580
     38 H           2.6417    0.4112  -13.2734 H       1  UNL1        0.0580
     39 H           0.5461   -1.2886  -14.1835 H       1  UNL1        0.2095
     40 H           4.9970    0.9187    0.6863 H       1  UNL1        0.0371
     41 H           4.9970   -0.8275    0.7498 H       1  UNL1        0.0371
     42 H           4.7903   -0.7388    3.1900 H       1  UNL1        0.0426
     43 H           4.7903    1.0074    3.1266 H       1  UNL1        0.0426
     44 H           6.9569   -0.7338    2.2040 H       1  UNL1        0.1182
     45 H           6.9569    0.1509    3.6153 H       1  UNL1        0.1182
@<TRIPOS>BOND
     1     1     2    1
     2     2     3    1
     3     3     4    1
     4     4     5    1
     5     5     6    1
     6     6     7    1
     7     7     8    1
     8     8     9    1
     9     9    10    1
    10    10    11    1
    11    11    12    1
    12    12    13    1
    13    13    14    1
    14     2    15   am
    15    15    16    2
    16    15    17    1
    17    17    18    1
    18    18    19    1
    19     1    20    1
    20     1    21    1
    21     1    22    1
    22     3    23    1
    23     3    24    1
    24     4    25    1
    25     4    26    1
    26     6    27    1
    27     6    28    1
    28     7    29    1
    29     7    30    1
    30     9    31    1
    31     9    32    1
    32    10    33    1
    33    10    34    1
    34    12    35    1
    35    12    36    1
    36    13    37    1
    37    13    38    1
    38    14    39    1
    39    17    40    1
    40    17    41    1
    41    18    42    1
    42    18    43    1
    43    19    44    1
    44    19    45    1
