@<TRIPOS>MOLECULE
*****
 44 43 0 0 0
SMALL
GASTEIGER

@<TRIPOS>ATOM
      1 C           1.0192    0.0745    0.0639 C.3     1  UNL1       -0.0416
      2 C           2.5392    0.0745    0.0639 C.3     1  UNL1        0.0449
      3 O           3.0125    0.0348    1.4021 O.3     1  UNL1       -0.3778
      4 C           4.4325    0.0348    1.4021 C.3     1  UNL1        0.0710
      5 C           4.9391   -0.0078    2.8345 C.3     1  UNL1        0.0711
      6 O           6.3591   -0.0078    2.8345 O.3     1  UNL1       -0.3752
      7 C           6.8325   -0.0475    4.1727 C.3     1  UNL1        0.0711
      8 C           8.3525   -0.0475    4.1727 C.3     1  UNL1        0.0711
      9 O           8.8258   -0.0873    5.5109 O.3     1  UNL1       -0.3752
     10 C          10.2458   -0.0873    5.5109 C.3     1  UNL1        0.0711
     11 C          10.7525   -0.1298    6.9434 C.3     1  UNL1        0.0711
     12 O          12.1725   -0.1298    6.9434 O.3     1  UNL1       -0.3760
     13 C          12.6458   -0.1696    8.2816 C.3     1  UNL1        0.0633
     14 C          14.1658   -0.1696    8.2816 C.3     1  UNL1        0.0351
     15 N          14.6558   -0.2107    9.6669 N.am    1  UNL1       -0.3112
     16 C          16.1010   -0.2187    9.9354 C.2     1  UNL1        0.2386
     17 O          16.9269   -0.1900    8.9698 O.2     1  UNL1       -0.2733
     18 C          16.6077   -0.2613   11.3678 C.3     1  UNL1        0.1202
     19 O          18.0277   -0.2613   11.3678 O.3     1  UNL1       -0.3858
     20 H           0.6625    0.1045   -0.9445 H       1  UNL1        0.0252
     21 H           0.6625    0.9328    0.5940 H       1  UNL1        0.0252
     22 H           0.6625   -0.8137    0.5421 H       1  UNL1        0.0252
     23 H           2.8958    0.9628   -0.4144 H       1  UNL1        0.0557
     24 H           2.8958   -0.7838   -0.4662 H       1  UNL1        0.0557
     25 H           4.7892    0.9230    0.9238 H       1  UNL1        0.0583
     26 H           4.7892   -0.8235    0.8720 H       1  UNL1        0.0583
     27 H           4.5825   -0.8960    3.3128 H       1  UNL1        0.0583
     28 H           4.5825    0.8505    3.3646 H       1  UNL1        0.0583
     29 H           6.4758   -0.9358    4.6510 H       1  UNL1        0.0583
     30 H           6.4758    0.8108    4.7028 H       1  UNL1        0.0583
     31 H           8.7091    0.8407    3.6945 H       1  UNL1        0.0583
     32 H           8.7091   -0.9058    3.6426 H       1  UNL1        0.0583
     33 H          10.6025    0.8010    5.0327 H       1  UNL1        0.0583
     34 H          10.6025   -0.9456    4.9808 H       1  UNL1        0.0583
     35 H          10.3958   -1.0181    7.4216 H       1  UNL1        0.0583
     36 H          10.3958    0.7284    7.4735 H       1  UNL1        0.0583
     37 H          12.2891   -1.0578    8.7598 H       1  UNL1        0.0575
     38 H          12.2891    0.6887    8.8117 H       1  UNL1        0.0575
     39 H          14.5225    0.7187    7.8033 H       1  UNL1        0.0484
     40 H          14.5225   -1.0279    7.7514 H       1  UNL1        0.0484
     41 H          14.0160   -0.2330   10.4148 H       1  UNL1        0.1488
     42 H          16.2510   -1.1495   11.8461 H       1  UNL1        0.0654
     43 H          16.2510    0.5970   11.8979 H       1  UNL1        0.0654
     44 H          18.3510   -1.0393   10.8872 H       1  UNL1        0.2100
@<TRIPOS>BOND
     1     1     2    1
     2     2     3    1
     3     3     4    1
     4     4     5    1
     5     5     6    1
     6     6     7    1
     7     7     8    1
     8     8     9    1
     9     9    10    1
    10    10    11    1
    11    11    12    1
    12    12    13    1
    13    13    14    1
    14    14    15    1
    15    15    16   am
    16    16    17    2
    17    16    18    1
    18    18    19    1
    19     1    20    1
    20     1    21    1
    21     1    22    1
    22     2    23    1
    23     2    24    1
    24     4    25    1
    25     4    26    1
    26     5    27    1
    27     5    28    1
    28     7    29    1
    29     7    30    1
    30     8    31    1
    31     8    32    1
    32    10    33    1
    33    10    34    1
    34    11    35    1
    35    11    36    1
    36    13    37    1
    37    13    38    1
    38    14    39    1
    39    14    40    1
    40    15    41    1
    41    18    42    1
    42    18    43    1
    43    19    44    1
