@<TRIPOS>MOLECULE
*****
 42 42 0 0 0
SMALL
GASTEIGER

@<TRIPOS>ATOM
      1 C           0.9261    0.0674    0.0004 C.1     1  UNL1       -0.1169
      2 C           2.2300    0.0674    0.0004 C.1     1  UNL1       -0.0773
      3 C           3.7500    0.0674    0.0004 C.3     1  UNL1        0.1080
      4 O           4.2233    1.3015   -0.5186 O.3     1  UNL1       -0.3673
      5 C           5.6433    1.3015   -0.5186 C.3     1  UNL1        0.0489
      6 C           6.1500    2.6225   -1.0741 C.3     1  UNL1       -0.0294
      7 C           7.6700    2.6225   -1.0741 C.3     1  UNL1       -0.0509
      8 C           8.1766    3.9435   -1.6297 C.3     1  UNL1       -0.0513
      9 C           9.6966    3.9435   -1.6297 C.3     1  UNL1       -0.0333
     10 C          10.2033    5.2645   -2.1852 C.3     1  UNL1        0.0432
     11 N          11.6733    5.2645   -2.1852 N.ar    1  UNL1       -0.2515
     12 C          12.3697    6.3764   -2.6528 C.ar    1  UNL1        0.0486
     13 C          13.8099    6.3764   -2.6528 C.ar    1  UNL1        0.0829
     14 C          14.5699    5.1630   -2.1425 C.3     1  UNL1       -0.0051
     15 C          13.5822    4.0980   -1.6947 C.3     1  UNL1       -0.0242
     16 C          14.3422    2.8846   -1.1844 C.3     1  UNL1        0.0446
     17 O          13.4194    1.8897   -0.7660 O.3     1  UNL1       -0.3950
     18 N          14.5063    7.4883   -3.1204 N.ar    1  UNL1       -0.1345
     19 N          12.3460    4.1904   -1.7335 N.ar    1  UNL1       -0.0655
     20 H          -0.0679    0.0674    0.0004 H       1  UNL1        0.1229
     21 H           4.1066   -0.7362   -0.6094 H       1  UNL1        0.0697
     22 H           4.1066   -0.0589    1.0013 H       1  UNL1        0.0697
     23 H           6.0000    0.4979   -1.1284 H       1  UNL1        0.0560
     24 H           6.0000    1.1752    0.4823 H       1  UNL1        0.0560
     25 H           5.7933    3.4261   -0.4643 H       1  UNL1        0.0287
     26 H           5.7933    2.7488   -2.0750 H       1  UNL1        0.0287
     27 H           8.0266    1.8189   -1.6839 H       1  UNL1        0.0266
     28 H           8.0266    2.4962   -0.0733 H       1  UNL1        0.0266
     29 H           7.8200    4.7472   -1.0199 H       1  UNL1        0.0266
     30 H           7.8200    4.0698   -2.6305 H       1  UNL1        0.0266
     31 H          10.0533    3.1399   -2.2395 H       1  UNL1        0.0283
     32 H          10.0533    3.8172   -0.6288 H       1  UNL1        0.0283
     33 H           9.8466    6.0682   -1.5754 H       1  UNL1        0.0509
     34 H           9.8466    5.3908   -3.1861 H       1  UNL1        0.0509
     35 H          11.8537    7.2003   -2.9993 H       1  UNL1        0.0845
     36 H          15.1851    5.4494   -1.3152 H       1  UNL1        0.0330
     37 H          15.1851    4.7721   -2.9259 H       1  UNL1        0.0330
     38 H          12.9670    3.8116   -2.5220 H       1  UNL1        0.0291
     39 H          12.9670    4.4890   -0.9113 H       1  UNL1        0.0291
     40 H          14.9573    3.1710   -0.3571 H       1  UNL1        0.0557
     41 H          14.9573    2.4937   -1.9677 H       1  UNL1        0.0557
     42 H          12.8617    2.2441   -0.0558 H       1  UNL1        0.2094
@<TRIPOS>BOND
     1     1     2    3
     2     2     3    1
     3     3     4    1
     4     4     5    1
     5     5     6    1
     6     6     7    1
     7     7     8    1
     8     8     9    1
     9     9    10    1
    10    10    11    1
    11    11    12   ar
    12    12    13   ar
    13    13    14    1
    14    14    15    1
    15    15    16    1
    16    16    17    1
    17    13    18   ar
    18    18    19   ar
    19    11    19   ar
    20     1    20    1
    21     3    21    1
    22     3    22    1
    23     5    23    1
    24     5    24    1
    25     6    25    1
    26     6    26    1
    27     7    27    1
    28     7    28    1
    29     8    29    1
    30     8    30    1
    31     9    31    1
    32     9    32    1
    33    10    33    1
    34    10    34    1
    35    12    35    1
    36    14    36    1
    37    14    37    1
    38    15    38    1
    39    15    39    1
    40    16    40    1
    41    16    41    1
    42    17    42    1
