@<TRIPOS>MOLECULE
*****
 16 15 0 0 0
SMALL
GASTEIGER

@<TRIPOS>ATOM
      1 C           0.9243   -0.0424    0.0497 C.3     1  UNL1        0.0364
      2 O           2.3443   -0.0424    0.0497 O.3     1  UNL1       -0.3829
      3 C           2.8176    0.6178   -1.1150 C.3     1  UNL1        0.0494
      4 C           4.3376    0.6178   -1.1150 C.3     1  UNL1       -0.0062
      5 C           4.8443    1.3244   -2.3617 C.3     1  UNL1        0.0463
      6 O           6.2643    1.3244   -2.3617 O.3     1  UNL1       -0.3949
      7 H           0.5676   -0.5398    0.9274 H       1  UNL1        0.0523
      8 H           0.5676   -0.5537   -0.8199 H       1  UNL1        0.0523
      9 H           0.5676    0.9664    0.0417 H       1  UNL1        0.0523
     10 H           2.4609    1.6266   -1.1230 H       1  UNL1        0.0560
     11 H           2.4609    0.1064   -1.9846 H       1  UNL1        0.0560
     12 H           4.6943   -0.3910   -1.1070 H       1  UNL1        0.0309
     13 H           4.6943    1.1291   -0.2454 H       1  UNL1        0.0309
     14 H           4.4876    2.3332   -2.3698 H       1  UNL1        0.0558
     15 H           4.4876    0.8131   -3.2313 H       1  UNL1        0.0558
     16 H           6.5876    1.7880   -1.5734 H       1  UNL1        0.2094
@<TRIPOS>BOND
     1     1     2    1
     2     2     3    1
     3     3     4    1
     4     4     5    1
     5     5     6    1
     6     1     7    1
     7     1     8    1
     8     1     9    1
     9     3    10    1
    10     3    11    1
    11     4    12    1
    12     4    13    1
    13     5    14    1
    14     5    15    1
    15     6    16    1
