@<TRIPOS>MOLECULE
*****
 9 8 0 0 0
SMALL
GASTEIGER

@<TRIPOS>ATOM
      1 C           1.0068   -0.0600   -0.0797 C.3     1  UNL1       -0.0418
      2 C           2.5268   -0.0600   -0.0797 C.3     1  UNL1        0.0414
      3 O           3.0002   -0.5989   -1.3053 O.3     1  UNL1       -0.3953
      4 H           0.6502    0.3460    0.8438 H       1  UNL1        0.0252
      5 H           0.6502   -1.0628   -0.1898 H       1  UNL1        0.0252
      6 H           0.6502    0.5367   -0.8931 H       1  UNL1        0.0252
      7 H           2.8835   -0.6567    0.7337 H       1  UNL1        0.0554
      8 H           2.8835    0.9428    0.0304 H       1  UNL1        0.0554
      9 H           2.6768   -1.5079   -1.4051 H       1  UNL1        0.2094
@<TRIPOS>BOND
     1     1     2    1
     2     2     3    1
     3     1     4    1
     4     1     5    1
     5     1     6    1
     6     2     7    1
     7     2     8    1
     8     3     9    1
