@<TRIPOS>MOLECULE
*****
 47 47 0 0 0
SMALL
GASTEIGER

@<TRIPOS>ATOM
      1 C           0.9772   -0.0624    0.0747 C.3     1  UNL1       -0.0127
      2 N           2.4472   -0.0624    0.0747 N.3     1  UNL1       -0.3029
      3 C           2.9372    0.9902    0.9762 C.3     1  UNL1        0.0114
      4 C           4.4572    0.9902    0.9762 C.3     1  UNL1        0.0118
      5 N           4.9472    2.0429    1.8777 N.3     1  UNL1       -0.2977
      6 C           4.4572    1.7885    3.2401 C.3     1  UNL1        0.0224
      7 C           2.9372    1.7885    3.2401 C.3     1  UNL1        0.0605
      8 O           2.4638    1.5428    4.5562 O.3     1  UNL1       -0.3762
      9 C           1.0438    1.5428    4.5562 C.3     1  UNL1        0.0711
     10 C           0.5372    1.2797    5.9649 C.3     1  UNL1        0.0711
     11 O          -0.8828    1.2797    5.9649 O.3     1  UNL1       -0.3752
     12 C          -1.3562    1.0339    7.2809 C.3     1  UNL1        0.0711
     13 C          -2.8762    1.0340    7.2809 C.3     1  UNL1        0.0711
     14 O          -3.3495    0.7882    8.5969 O.3     1  UNL1       -0.3752
     15 C          -4.7695    0.7882    8.5969 C.3     1  UNL1        0.0708
     16 C          -5.2762    0.5251   10.0057 C.3     1  UNL1        0.0676
     17 O          -6.6962    0.5251   10.0056 O.3     1  UNL1       -0.3927
     18 C           6.4172    2.0429    1.8777 C.3     1  UNL1        0.0118
     19 C           2.9372    0.1920   -1.2877 C.3     1  UNL1        0.0114
     20 H           0.6205   -0.2476    1.0664 H       1  UNL1        0.0391
     21 H           0.6205   -0.8286   -0.5815 H       1  UNL1        0.0391
     22 H           0.6205    0.8890   -0.2607 H       1  UNL1        0.0391
     23 H           2.5805    0.8051    1.9679 H       1  UNL1        0.0439
     24 H           2.5805    1.9416    0.6408 H       1  UNL1        0.0439
     25 H           4.8138    1.1754   -0.0154 H       1  UNL1        0.0439
     26 H           4.8138    0.0389    1.3117 H       1  UNL1        0.0439
     27 H           4.8138    2.5547    3.8963 H       1  UNL1        0.0449
     28 H           4.8138    0.8371    3.5756 H       1  UNL1        0.0449
     29 H           2.5805    1.0223    2.5839 H       1  UNL1        0.0572
     30 H           2.5805    2.7399    2.9047 H       1  UNL1        0.0572
     31 H           0.6872    0.7765    3.9000 H       1  UNL1        0.0583
     32 H           0.6872    2.4941    4.2207 H       1  UNL1        0.0583
     33 H           0.8938    2.0459    6.6211 H       1  UNL1        0.0583
     34 H           0.8938    0.3283    6.3003 H       1  UNL1        0.0583
     35 H          -0.9995    1.8002    7.9371 H       1  UNL1        0.0583
     36 H          -0.9995    0.0826    7.6164 H       1  UNL1        0.0583
     37 H          -3.2328    0.2677    6.6247 H       1  UNL1        0.0583
     38 H          -3.2328    1.9853    6.9454 H       1  UNL1        0.0583
     39 H          -5.1262    0.0220    7.9407 H       1  UNL1        0.0583
     40 H          -5.1262    1.7396    8.2615 H       1  UNL1        0.0583
     41 H          -4.9195    1.2914   10.6619 H       1  UNL1        0.0580
     42 H          -4.9195   -0.4262   10.3411 H       1  UNL1        0.0580
     43 H          -7.0195    1.3876    9.7015 H       1  UNL1        0.2095
     44 H           6.9848    1.4118    2.5292 H       1  UNL1        0.0439
     45 H           7.2423    2.7241    1.8901 H       1  UNL1        0.0439
     46 H           3.2089   -0.6547   -1.8828 H       1  UNL1        0.0439
     47 H           2.4407    0.6798   -2.1003 H       1  UNL1        0.0439
@<TRIPOS>BOND
     1     1     2    1
     2     2     3    1
     3     3     4    1
     4     4     5    1
     5     5     6    1
     6     6     7    1
     7     7     8    1
     8     8     9    1
     9     9    10    1
    10    10    11    1
    11    11    12    1
    12    12    13    1
    13    13    14    1
    14    14    15    1
    15    15    16    1
    16    16    17    1
    17     5    18    1
    18    18    19    1
    19     2    19    1
    20     1    20    1
    21     1    21    1
    22     1    22    1
    23     3    23    1
    24     3    24    1
    25     4    25    1
    26     4    26    1
    27     6    27    1
    28     6    28    1
    29     7    29    1
    30     7    30    1
    31     9    31    1
    32     9    32    1
    33    10    33    1
    34    10    34    1
    35    12    35    1
    36    12    36    1
    37    13    37    1
    38    13    38    1
    39    15    39    1
    40    15    40    1
    41    16    41    1
    42    16    42    1
    43    17    43    1
    44    18    44    1
    45    18    45    1
    46    19    46    1
    47    19    47    1
