@<TRIPOS>MOLECULE
*****
 44 46 0 0 0
SMALL
GASTEIGER

@<TRIPOS>ATOM
      1 C           1.0019    0.0081   -0.0997 C.3     1  UNL1       -0.0128
      2 N           2.4719    0.0081   -0.0997 N.3     1  UNL1       -0.3054
      3 C           2.9619    0.1634    1.2775 C.3     1  UNL1       -0.0128
      4 C           2.9619   -1.2623   -0.6537 C.3     1  UNL1        0.0108
      5 C           4.4819   -1.2623   -0.6537 C.3     1  UNL1       -0.0315
      6 C           4.9886   -2.5758   -1.2266 C.3     1  UNL1       -0.0236
      7 C           6.5086   -2.5758   -1.2266 C.3     1  UNL1       -0.0313
      8 C           7.0153   -3.8894   -1.7995 C.3     1  UNL1        0.0155
      9 N           8.4853   -3.8894   -1.7995 N.am    1  UNL1       -0.2975
     10 C           9.2203   -2.7225   -1.2906 C.2     1  UNL1        0.2466
     11 O          10.4912   -2.7225   -1.2906 O.2     1  UNL1       -0.2700
     12 C           8.4603   -1.5159   -0.7643 C.ar    1  UNL1        0.0369
     13 C           9.1804   -0.3727   -0.2657 C.ar    1  UNL1       -0.0496
     14 C           8.4603    0.7706    0.2329 C.ar    1  UNL1       -0.0610
     15 C           9.1804    1.9138    0.7315 C.ar    1  UNL1       -0.0617
     16 C           8.4603    3.0571    1.2301 C.ar    1  UNL1       -0.0610
     17 C           7.0201   -1.5159   -0.7643 C.ar    1  UNL1       -0.0496
     18 C           9.2203   -5.0563   -2.3085 C.3     1  UNL1        0.0155
     19 C           4.4819   -2.7365   -2.6507 C.3     1  UNL1       -0.0313
     20 C           2.4553   -1.4229   -2.0778 C.3     1  UNL1       -0.0315
     21 H           0.6453    0.9328    0.3036 H       1  UNL1        0.0391
     22 H           0.6453   -0.8035    0.4995 H       1  UNL1        0.0391
     23 H           0.6453   -0.1050   -1.1021 H       1  UNL1        0.0391
     24 H           2.6053    1.0881    1.6808 H       1  UNL1        0.0391
     25 H           4.0319    0.1634    1.2775 H       1  UNL1        0.0391
     26 H           2.6053   -0.6482    1.8767 H       1  UNL1        0.0391
     27 H           2.6053   -2.0739   -0.0546 H       1  UNL1        0.0463
     28 H           4.8386   -1.1492    0.3487 H       1  UNL1        0.0286
     29 H           4.8386   -0.4507   -1.2529 H       1  UNL1        0.0286
     30 H           6.8653   -2.4628   -0.2242 H       1  UNL1        0.0286
     31 H           6.8653   -1.7642   -1.8258 H       1  UNL1        0.0286
     32 H           6.6586   -4.0025   -2.8020 H       1  UNL1        0.0465
     33 H           6.6586   -4.7010   -1.2004 H       1  UNL1        0.0465
     34 H          10.2124   -0.3727   -0.2657 H       1  UNL1        0.0625
     35 H           7.4283    0.7706    0.2329 H       1  UNL1        0.0618
     36 H          10.2124    1.9138    0.7315 H       1  UNL1        0.0618
     37 H           8.3354    3.9961    1.6397 H       1  UNL1        0.0618
     38 H           6.1953   -2.0845   -1.0123 H       1  UNL1        0.0625
     39 H           9.3977   -5.9334   -1.7218 H       1  UNL1        0.0465
     40 H          10.0749   -5.3431   -2.8848 H       1  UNL1        0.0465
     41 H           3.6287   -3.3620   -2.8108 H       1  UNL1        0.0286
     42 H           4.1328   -1.9952   -3.3388 H       1  UNL1        0.0286
     43 H           1.6172   -2.0556   -2.2835 H       1  UNL1        0.0286
     44 H           2.1394   -0.7607   -2.8566 H       1  UNL1        0.0286
@<TRIPOS>BOND
     1     1     2    1
     2     2     3    1
     3     2     4    1
     4     4     5    1
     5     5     6    1
     6     6     7    1
     7     7     8    1
     8     8     9    1
     9     9    10   am
    10    10    11    2
    11    10    12    1
    12    12    13   ar
    13    13    14   ar
    14    14    15   ar
    15    15    16   ar
    16    16    17   ar
    17    12    17   ar
    18     9    18    1
    19    18    19    1
    20     6    19    1
    21     6    20    1
    22     4    20    1
    23     1    21    1
    24     1    22    1
    25     1    23    1
    26     3    24    1
    27     3    25    1
    28     3    26    1
    29     4    27    1
    30     5    28    1
    31     5    29    1
    32     7    30    1
    33     7    31    1
    34     8    32    1
    35     8    33    1
    36    13    34    1
    37    14    35    1
    38    15    36    1
    39    16    37    1
    40    17    38    1
    41    18    39    1
    42    18    40    1
    43    19    41    1
    44    19    42    1
    45    20    43    1
    46    20    44    1
