@<TRIPOS>MOLECULE
*****
 46 46 0 0 0
SMALL
GASTEIGER

@<TRIPOS>ATOM
      1 C           0.9343   -0.0623   -0.0425 C.3     1  UNL1       -0.0653
      2 C           2.4543   -0.0623   -0.0425 C.3     1  UNL1       -0.0559
      3 C           2.9610    0.6375   -1.2931 C.3     1  UNL1       -0.0533
      4 C           4.4810    0.6375   -1.2931 C.3     1  UNL1       -0.0530
      5 C           4.9876    1.3373   -2.5437 C.3     1  UNL1       -0.0514
      6 C           6.5076    1.3373   -2.5437 C.3     1  UNL1       -0.0333
      7 C           7.0143    2.0371   -3.7943 C.3     1  UNL1        0.0432
      8 N           8.4843    2.0371   -3.7943 N.ar    1  UNL1       -0.2514
      9 C           9.1807    2.6261   -4.8469 C.ar    1  UNL1        0.0509
     10 C          10.6209    2.6261   -4.8469 C.ar    1  UNL1        0.1083
     11 C          11.3809    1.9833   -3.6982 C.3     1  UNL1        0.0930
     12 O          10.4581    1.4563   -2.7563 O.3     1  UNL1       -0.3713
     13 C          11.1681    0.8558   -1.6831 C.3     1  UNL1        0.0715
     14 C          10.1804    0.2916   -0.6749 C.3     1  UNL1        0.0710
     15 O          10.8904   -0.3089    0.3982 O.3     1  UNL1       -0.3778
     16 C           9.9676   -0.8359    1.3401 C.3     1  UNL1        0.0449
     17 C          10.7276   -1.4787    2.4889 C.3     1  UNL1       -0.0416
     18 N          11.3173    3.2151   -5.8996 N.ar    1  UNL1       -0.1322
     19 N           9.1570    1.4681   -2.7775 N.ar    1  UNL1       -0.0654
     20 H           0.5776   -0.5549    0.8378 H       1  UNL1        0.0230
     21 H           0.5776   -0.5784   -0.9093 H       1  UNL1        0.0230
     22 H           0.5776    0.9465   -0.0561 H       1  UNL1        0.0230
     23 H           2.8110   -1.0710   -0.0289 H       1  UNL1        0.0263
     24 H           2.8110    0.4538    0.8243 H       1  UNL1        0.0263
     25 H           2.6043    1.6462   -1.3067 H       1  UNL1        0.0265
     26 H           2.6043    0.1214   -2.1599 H       1  UNL1        0.0265
     27 H           4.8376   -0.3712   -1.2795 H       1  UNL1        0.0265
     28 H           4.8376    1.1536   -0.4263 H       1  UNL1        0.0265
     29 H           4.6310    2.3460   -2.5573 H       1  UNL1        0.0266
     30 H           4.6310    0.8212   -3.4105 H       1  UNL1        0.0266
     31 H           6.8643    0.3286   -2.5301 H       1  UNL1        0.0283
     32 H           6.8643    1.8534   -1.6769 H       1  UNL1        0.0283
     33 H           6.6576    3.0458   -3.8079 H       1  UNL1        0.0509
     34 H           6.6576    1.5210   -4.6611 H       1  UNL1        0.0509
     35 H           8.6647    3.0625   -5.6269 H       1  UNL1        0.0846
     36 H          11.9961    2.7180   -3.2221 H       1  UNL1        0.0626
     37 H          11.9961    1.1932   -4.0753 H       1  UNL1        0.0626
     38 H          11.7833    1.5905   -1.2071 H       1  UNL1        0.0583
     39 H          11.7833    0.0657   -2.0603 H       1  UNL1        0.0583
     40 H           9.5652   -0.4431   -1.1510 H       1  UNL1        0.0583
     41 H           9.5652    1.0817   -0.2978 H       1  UNL1        0.0583
     42 H           9.3525   -1.5707    0.8640 H       1  UNL1        0.0557
     43 H           9.3525   -0.0458    1.7173 H       1  UNL1        0.0557
     44 H          11.3428   -2.2688    2.1117 H       1  UNL1        0.0252
     45 H          10.0323   -1.8759    3.1986 H       1  UNL1        0.0252
     46 H          11.3428   -0.7440    2.9649 H       1  UNL1        0.0252
@<TRIPOS>BOND
     1     1     2    1
     2     2     3    1
     3     3     4    1
     4     4     5    1
     5     5     6    1
     6     6     7    1
     7     7     8    1
     8     8     9   ar
     9     9    10   ar
    10    10    11    1
    11    11    12    1
    12    12    13    1
    13    13    14    1
    14    14    15    1
    15    15    16    1
    16    16    17    1
    17    10    18   ar
    18    18    19   ar
    19     8    19   ar
    20     1    20    1
    21     1    21    1
    22     1    22    1
    23     2    23    1
    24     2    24    1
    25     3    25    1
    26     3    26    1
    27     4    27    1
    28     4    28    1
    29     5    29    1
    30     5    30    1
    31     6    31    1
    32     6    32    1
    33     7    33    1
    34     7    34    1
    35     9    35    1
    36    11    36    1
    37    11    37    1
    38    13    38    1
    39    13    39    1
    40    14    40    1
    41    14    41    1
    42    16    42    1
    43    16    43    1
    44    17    44    1
    45    17    45    1
    46    17    46    1
