@<TRIPOS>MOLECULE
*****
 32 31 0 0 0
SMALL
GASTEIGER

@<TRIPOS>ATOM
      1 C           1.0859    0.0127   -0.0495 C.3     1  UNL1       -0.0648
      2 C           2.6059    0.0127   -0.0495 C.3     1  UNL1       -0.0476
      3 C           3.1126    1.2299    0.7068 C.3     1  UNL1        0.0239
      4 C           4.6326    1.2299    0.7068 C.2     1  UNL1        0.2153
      5 O           5.2681    0.2950    0.1259 O.2     1  UNL1       -0.2756
      6 N           5.3676    2.3113    1.3786 N.am    1  UNL1       -0.3033
      7 C           4.6326    3.3926    2.0504 C.3     1  UNL1        0.0032
      8 C           6.8376    2.3113    1.3786 C.3     1  UNL1        0.0271
      9 C           7.3443    3.5285    2.1349 C.3     1  UNL1        0.0141
     10 N           8.8143    3.5285    2.1349 N.3     1  UNL1       -0.3069
     11 C           9.3043    3.5733    0.7497 C.3     1  UNL1       -0.0130
     12 C           9.3043    4.7057    2.8663 C.3     1  UNL1       -0.0130
     13 H           0.7293   -0.8442   -0.5819 H       1  UNL1        0.0230
     14 H           0.7293    0.9022   -0.5254 H       1  UNL1        0.0230
     15 H           0.7293   -0.0200    0.9588 H       1  UNL1        0.0230
     16 H           2.9626    0.0453   -1.0578 H       1  UNL1        0.0267
     17 H           2.9626   -0.8768    0.4264 H       1  UNL1        0.0267
     18 H           2.7559    1.1973    1.7150 H       1  UNL1        0.0358
     19 H           2.7559    2.1194    0.2309 H       1  UNL1        0.0358
     20 H           3.5806    3.2265    1.9473 H       1  UNL1        0.0428
     21 H           4.8911    4.3303    1.6045 H       1  UNL1        0.0428
     22 H           4.8911    3.4081    3.0886 H       1  UNL1        0.0428
     23 H           7.1943    2.3439    0.3703 H       1  UNL1        0.0477
     24 H           7.1943    1.4218    1.8545 H       1  UNL1        0.0477
     25 H           6.9876    3.4959    3.1432 H       1  UNL1        0.0442
     26 H           6.9876    4.4180    1.6590 H       1  UNL1        0.0442
     27 H           8.9476    2.7164    0.2173 H       1  UNL1        0.0391
     28 H          10.3743    3.5733    0.7497 H       1  UNL1        0.0391
     29 H           8.9476    4.4628    0.2738 H       1  UNL1        0.0391
     30 H           8.9476    4.6731    3.8746 H       1  UNL1        0.0391
     31 H           8.9476    5.5952    2.3904 H       1  UNL1        0.0391
     32 H          10.3743    4.7057    2.8663 H       1  UNL1        0.0391
@<TRIPOS>BOND
     1     1     2    1
     2     2     3    1
     3     3     4    1
     4     4     5    2
     5     4     6   am
     6     6     7    1
     7     6     8    1
     8     8     9    1
     9     9    10    1
    10    10    11    1
    11    10    12    1
    12     1    13    1
    13     1    14    1
    14     1    15    1
    15     2    16    1
    16     2    17    1
    17     3    18    1
    18     3    19    1
    19     7    20    1
    20     7    21    1
    21     7    22    1
    22     8    23    1
    23     8    24    1
    24     9    25    1
    25     9    26    1
    26    11    27    1
    27    11    28    1
    28    11    29    1
    29    12    30    1
    30    12    31    1
    31    12    32    1
