@<TRIPOS>MOLECULE
*****
 38 38 0 0 0
SMALL
GASTEIGER

@<TRIPOS>ATOM
      1 C           0.9005    0.0104    0.0003 C.3     1  UNL1       -0.0157
      2 N           2.3705    0.0104    0.0003 N.3     1  UNL1       -0.3165
      3 C           2.8605    0.9246    1.0419 C.3     1  UNL1        0.0231
      4 C           4.3805    0.9246    1.0419 C.3     1  UNL1        0.0838
      5 C           4.8872    1.8700    2.1190 C.3     1  UNL1        0.0266
      6 N           6.3572    1.8700    2.1190 N.3     1  UNL1       -0.2955
      7 C           6.8472    2.3149    0.8064 C.3     1  UNL1        0.0225
      8 C           6.3405    1.3696   -0.2706 C.3     1  UNL1        0.0604
      9 O           6.8139    1.7994   -1.5386 O.3     1  UNL1       -0.3773
     10 C           6.3405    0.9163   -2.5448 C.3     1  UNL1        0.0600
     11 C           6.8472    1.3764   -3.9020 C.3     1  UNL1        0.0166
     12 N           6.3572    0.4622   -4.9436 N.3     1  UNL1       -0.3279
     13 C           6.8472    2.7842    3.1606 C.3     1  UNL1        0.0225
     14 C           8.3672    2.7842    3.1606 C.3     1  UNL1        0.0608
     15 O           4.8539    1.3545   -0.2260 O.3     1  UNL1       -0.3728
     16 H           0.5439   -0.6550   -0.7579 H       1  UNL1        0.0388
     17 H           0.5439    0.9998   -0.1969 H       1  UNL1        0.0388
     18 H           0.5439   -0.3135    0.9557 H       1  UNL1        0.0388
     19 H           2.7105    0.3192   -0.9105 H       1  UNL1        0.1217
     20 H           2.5039    0.6008    1.9973 H       1  UNL1        0.0450
     21 H           2.5039    1.9140    0.8447 H       1  UNL1        0.0450
     22 H           4.7372   -0.0647    1.2391 H       1  UNL1        0.0621
     23 H           4.5305    1.5461    3.0744 H       1  UNL1        0.0452
     24 H           4.5305    2.8593    1.9218 H       1  UNL1        0.0452
     25 H           7.9172    2.3149    0.8064 H       1  UNL1        0.0449
     26 H           6.4905    3.3043    0.6092 H       1  UNL1        0.0449
     27 H           5.2705    1.3696   -0.2706 H       1  UNL1        0.0572
     28 H           6.6972    0.3803   -0.0734 H       1  UNL1        0.0572
     29 H           5.2705    0.9163   -2.5448 H       1  UNL1        0.0572
     30 H           6.6972   -0.0730   -2.3475 H       1  UNL1        0.0572
     31 H           7.9172    1.3764   -3.9020 H       1  UNL1        0.0444
     32 H           6.4905    2.3657   -4.0992 H       1  UNL1        0.0444
     33 H           6.6972   -0.4809   -4.7556 H       1  UNL1        0.1183
     34 H           6.6972    0.7709   -5.8543 H       1  UNL1        0.1183
     35 H           6.4905    2.4603    4.1160 H       1  UNL1        0.0449
     36 H           6.4905    3.7735    2.9634 H       1  UNL1        0.0449
     37 H           8.9352    2.0738    3.7241 H       1  UNL1        0.0573
     38 H           9.1932    3.4571    3.2598 H       1  UNL1        0.0573
@<TRIPOS>BOND
     1     1     2    1
     2     2     3    1
     3     3     4    1
     4     4     5    1
     5     5     6    1
     6     6     7    1
     7     7     8    1
     8     8     9    1
     9     9    10    1
    10    10    11    1
    11    11    12    1
    12     6    13    1
    13    13    14    1
    14    14    15    1
    15     4    15    1
    16     1    16    1
    17     1    17    1
    18     1    18    1
    19     2    19    1
    20     3    20    1
    21     3    21    1
    22     4    22    1
    23     5    23    1
    24     5    24    1
    25     7    25    1
    26     7    26    1
    27     8    27    1
    28     8    28    1
    29    10    29    1
    30    10    30    1
    31    11    31    1
    32    11    32    1
    33    12    33    1
    34    12    34    1
    35    13    35    1
    36    13    36    1
    37    14    37    1
    38    14    38    1
