@<TRIPOS>MOLECULE
*****
 77 79 0 0 0
SMALL
GASTEIGER

@<TRIPOS>ATOM
      1 C           0.9415    0.0390    0.0712 C.3     1  UNL1       -0.0652
      2 C           2.4615    0.0390    0.0712 C.3     1  UNL1       -0.0545
      3 C           2.9682    0.8972    1.2189 C.3     1  UNL1       -0.0373
      4 C           4.4882    0.8972    1.2189 C.3     1  UNL1        0.0165
      5 N           4.9782    1.7271    2.3288 N.am    1  UNL1       -0.2811
      6 C           4.0230    2.3962    3.2236 C.3     1  UNL1        0.0412
      7 C           2.6045    2.0692    2.7862 C.ar    1  UNL1       -0.0301
      8 C           1.4843    2.6113    3.5112 C.ar    1  UNL1       -0.0571
      9 C           0.1403    2.3014    3.0967 C.ar    1  UNL1       -0.0615
     10 C          -0.9799    2.8434    3.8217 C.ar    1  UNL1       -0.0617
     11 C          -2.3239    2.5336    3.4073 C.ar    1  UNL1       -0.0615
     12 C           2.3806    1.2172    1.6468 C.ar    1  UNL1       -0.0571
     13 C           6.4235    1.8880    2.5439 C.2     1  UNL1        0.3067
     14 O           7.2493    1.3095    1.7703 O.2     1  UNL1       -0.2523
     15 N           6.9134    2.7180    3.6539 N.am    1  UNL1       -0.2693
     16 C           8.3587    2.8788    3.8690 C.ar    1  UNL1        0.0349
     17 C           8.8388    3.6920    4.9564 C.ar    1  UNL1       -0.0387
     18 C          10.2547    3.8496    5.1672 C.ar    1  UNL1       -0.0387
     19 C          10.7348    4.6627    6.2546 C.ar    1  UNL1        0.0335
     20 N           9.7795    5.3318    7.1495 N.am    1  UNL1       -0.2855
     21 C           8.3343    5.1709    6.9343 C.2     1  UNL1        0.2172
     22 O           7.9106    4.4534    5.9747 O.2     1  UNL1       -0.2755
     23 C           7.3465    5.8628    7.8596 C.3     1  UNL1        0.0246
     24 C           5.9280    5.5357    7.4222 C.3     1  UNL1       -0.0393
     25 C           4.9403    6.2276    8.3474 C.3     1  UNL1       -0.0067
     26 C           3.5218    5.9005    7.9100 C.ar    1  UNL1        0.0829
     27 C           2.4016    6.4426    8.6350 C.ar    1  UNL1        0.0487
     28 N           1.1018    6.1429    8.2342 N.ar    1  UNL1       -0.2492
     29 C           0.8733    5.2733    7.0712 C.3     1  UNL1        0.0665
     30 C           2.2102    4.8402    6.4920 C.3     1  UNL1        0.0673
     31 O           1.9895    4.0002    5.3686 O.3     1  UNL1       -0.3767
     32 C           3.2385    3.5955    4.8275 C.3     1  UNL1        0.0600
     33 C           3.0022    2.6963    3.6250 C.3     1  UNL1        0.0166
     34 N           4.2951    2.2775    3.0648 N.3     1  UNL1       -0.3279
     35 N           0.0554    6.6493    8.9115 N.ar    1  UNL1       -0.0654
     36 N           3.3053    5.0766    6.8081 N.ar    1  UNL1       -0.1345
     37 C          12.1507    4.8203    6.4654 C.ar    1  UNL1       -0.0387
     38 C           9.2946    2.2233    2.9923 C.ar    1  UNL1       -0.0387
     39 H           0.5849   -0.5651   -0.7368 H       1  UNL1        0.0230
     40 H           0.5849    1.0407   -0.0481 H       1  UNL1        0.0230
     41 H           0.5849   -0.3586    0.9983 H       1  UNL1        0.0230
     42 H           2.8182    0.4366   -0.8560 H       1  UNL1        0.0263
     43 H           2.8182   -0.9627    0.1904 H       1  UNL1        0.0263
     44 H           2.6115    0.4996    2.1460 H       1  UNL1        0.0280
     45 H           2.6115    1.8989    1.0996 H       1  UNL1        0.0280
     46 H           4.8449    1.2948    0.2917 H       1  UNL1        0.0465
     47 H           4.8449   -0.1046    1.3381 H       1  UNL1        0.0465
     48 H           4.1746    3.4545    3.1800 H       1  UNL1        0.0514
     49 H           4.1746    2.0552    4.2264 H       1  UNL1        0.0514
     50 H           1.6447    3.2218    4.3276 H       1  UNL1        0.0621
     51 H          -0.0201    1.6909    2.2803 H       1  UNL1        0.0618
     52 H          -0.8195    3.4539    4.6381 H       1  UNL1        0.0618
     53 H          -3.3553    2.5551    3.4360 H       1  UNL1        0.0618
     54 H           2.8652    0.6716    0.9171 H       1  UNL1        0.0621
     55 H           6.2737    3.1661    4.2531 H       1  UNL1        0.1564
     56 H           8.1681    4.1617    5.5846 H       1  UNL1        0.0637
     57 H          10.9253    3.3798    4.5390 H       1  UNL1        0.0637
     58 H          10.1077    5.8876    7.8928 H       1  UNL1        0.1548
     59 H           7.4981    6.9211    7.8160 H       1  UNL1        0.0358
     60 H           7.4981    5.5217    8.8624 H       1  UNL1        0.0358
     61 H           5.7764    4.4774    7.4658 H       1  UNL1        0.0273
     62 H           5.7764    5.8768    6.4194 H       1  UNL1        0.0273
     63 H           5.0919    7.2859    8.3039 H       1  UNL1        0.0329
     64 H           5.0919    5.8865    9.3502 H       1  UNL1        0.0329
     65 H           2.5620    7.0531    9.4514 H       1  UNL1        0.0845
     66 H           0.3196    5.8089    6.3287 H       1  UNL1        0.0532
     67 H           0.3196    4.4096    7.3750 H       1  UNL1        0.0532
     68 H           2.7639    4.3045    7.2346 H       1  UNL1        0.0578
     69 H           2.7639    5.7039    6.1882 H       1  UNL1        0.0578
     70 H           3.7922    3.0599    5.5700 H       1  UNL1        0.0572
     71 H           3.7922    4.4592    4.5237 H       1  UNL1        0.0572
     72 H           2.4485    3.2320    2.8824 H       1  UNL1        0.0444
     73 H           2.4485    1.8326    3.9288 H       1  UNL1        0.0444
     74 H           4.8230    3.1008    2.7752 H       1  UNL1        0.1183
     75 H           4.1366    1.6741    2.2578 H       1  UNL1        0.1183
     76 H          13.0105    5.1621    6.9225 H       1  UNL1        0.0637
     77 H           9.3590    1.6065    2.1674 H       1  UNL1        0.0637
@<TRIPOS>BOND
     1     1     2    1
     2     2     3    1
     3     3     4    1
     4     4     5    1
     5     5     6    1
     6     6     7    1
     7     7     8   ar
     8     8     9   ar
     9     9    10   ar
    10    10    11   ar
    11    11    12   ar
    12     7    12   ar
    13     5    13   am
    14    13    14    2
    15    13    15   am
    16    15    16    1
    17    16    17   ar
    18    17    18   ar
    19    18    19   ar
    20    19    20    1
    21    20    21   am
    22    21    22    2
    23    21    23    1
    24    23    24    1
    25    24    25    1
    26    25    26    1
    27    26    27   ar
    28    27    28   ar
    29    28    29    1
    30    29    30    1
    31    30    31    1
    32    31    32    1
    33    32    33    1
    34    33    34    1
    35    28    35   ar
    36    35    36   ar
    37    26    36   ar
    38    19    37   ar
    39    37    38   ar
    40    16    38   ar
    41     1    39    1
    42     1    40    1
    43     1    41    1
    44     2    42    1
    45     2    43    1
    46     3    44    1
    47     3    45    1
    48     4    46    1
    49     4    47    1
    50     6    48    1
    51     6    49    1
    52     8    50    1
    53     9    51    1
    54    10    52    1
    55    11    53    1
    56    12    54    1
    57    15    55    1
    58    17    56    1
    59    18    57    1
    60    20    58    1
    61    23    59    1
    62    23    60    1
    63    24    61    1
    64    24    62    1
    65    25    63    1
    66    25    64    1
    67    27    65    1
    68    29    66    1
    69    29    67    1
    70    30    68    1
    71    30    69    1
    72    32    70    1
    73    32    71    1
    74    33    72    1
    75    33    73    1
    76    34    74    1
    77    34    75    1
    78    37    76    1
    79    38    77    1
