@<TRIPOS>MOLECULE
*****
 37 37 0 0 0
SMALL
GASTEIGER

@<TRIPOS>ATOM
      1 N           0.9917   -0.0519   -0.0851 N.3     1  UNL1       -0.3279
      2 C           2.4617   -0.0519   -0.0851 C.3     1  UNL1        0.0166
      3 C           2.9684    1.3532   -0.3671 C.3     1  UNL1        0.0600
      4 O           4.3884    1.3532   -0.3671 O.3     1  UNL1       -0.3763
      5 C           4.8617    2.6658   -0.6306 C.3     1  UNL1        0.0711
      6 C           6.3817    2.6658   -0.6306 C.3     1  UNL1        0.0711
      7 O           6.8550    3.9784   -0.8941 O.3     1  UNL1       -0.3752
      8 C           8.2750    3.9784   -0.8941 C.3     1  UNL1        0.0711
      9 C           8.7817    5.3834   -1.1762 C.3     1  UNL1        0.0711
     10 O          10.2017    5.3834   -1.1762 O.3     1  UNL1       -0.3757
     11 C          10.6750    6.6961   -1.4396 C.3     1  UNL1        0.0673
     12 C          12.1950    6.6961   -1.4396 C.3     1  UNL1        0.0665
     13 N          12.6850    8.0549   -1.7124 N.ar    1  UNL1       -0.2495
     14 C          14.0544    8.3044   -1.7625 C.ar    1  UNL1        0.0455
     15 C          14.5345    9.6357   -2.0297 C.ar    1  UNL1        0.0693
     16 N          15.9038    9.8852   -2.0798 N.ar    1  UNL1       -0.1380
     17 N          11.8107    9.0575   -1.9137 N.ar    1  UNL1       -0.0657
     18 H           0.6517   -0.9947    0.1042 H       1  UNL1        0.1183
     19 H           0.6517    0.2557   -0.9963 H       1  UNL1        0.1183
     20 H           2.8184   -0.7183   -0.8424 H       1  UNL1        0.0444
     21 H           2.8184   -0.3745    0.8707 H       1  UNL1        0.0444
     22 H           2.6117    2.0197    0.3901 H       1  UNL1        0.0572
     23 H           2.6117    1.6758   -1.3230 H       1  UNL1        0.0572
     24 H           4.5051    3.3323    0.1267 H       1  UNL1        0.0583
     25 H           4.5051    2.9884   -1.5865 H       1  UNL1        0.0583
     26 H           6.7384    1.9993   -1.3879 H       1  UNL1        0.0583
     27 H           6.7384    2.3432    0.3252 H       1  UNL1        0.0583
     28 H           8.6317    3.3119   -1.6514 H       1  UNL1        0.0583
     29 H           8.6317    3.6558    0.0617 H       1  UNL1        0.0583
     30 H           8.4250    6.0499   -0.4189 H       1  UNL1        0.0583
     31 H           8.4250    5.7060   -2.1320 H       1  UNL1        0.0583
     32 H          10.3184    7.3625   -0.6824 H       1  UNL1        0.0578
     33 H          10.3184    7.0186   -2.3955 H       1  UNL1        0.0578
     34 H          12.5517    6.0296   -2.1969 H       1  UNL1        0.0532
     35 H          12.5517    6.3735   -0.4838 H       1  UNL1        0.0532
     36 H          14.7250    7.5354   -1.6081 H       1  UNL1        0.0842
     37 H          13.8638   10.4047   -2.1841 H       1  UNL1        0.0864
@<TRIPOS>BOND
     1     1     2    1
     2     2     3    1
     3     3     4    1
     4     4     5    1
     5     5     6    1
     6     6     7    1
     7     7     8    1
     8     8     9    1
     9     9    10    1
    10    10    11    1
    11    11    12    1
    12    12    13    1
    13    13    14   ar
    14    14    15   ar
    15    15    16   ar
    16    16    17   ar
    17    13    17   ar
    18     1    18    1
    19     1    19    1
    20     2    20    1
    21     2    21    1
    22     3    22    1
    23     3    23    1
    24     5    24    1
    25     5    25    1
    26     6    26    1
    27     6    27    1
    28     8    28    1
    29     8    29    1
    30     9    30    1
    31     9    31    1
    32    11    32    1
    33    11    33    1
    34    12    34    1
    35    12    35    1
    36    14    36    1
    37    15    37    1
