@<TRIPOS>MOLECULE
*****
 16 15 0 0 0
SMALL
GASTEIGER

@<TRIPOS>ATOM
      1 C           1.0190   -0.0023   -0.0981 C.3     1  UNL1        0.0365
      2 O           2.4390   -0.0023   -0.0981 O.3     1  UNL1       -0.3807
      3 C           2.9124   -0.9596   -1.0341 C.3     1  UNL1        0.0706
      4 C           4.4324   -0.9596   -1.0341 C.3     1  UNL1        0.0706
      5 O           4.9057   -1.9168   -1.9701 O.3     1  UNL1       -0.3807
      6 C           6.3257   -1.9168   -1.9701 C.3     1  UNL1        0.0365
      7 H           0.6624    0.7190    0.6071 H       1  UNL1        0.0524
      8 H           0.6624   -0.9738    0.1739 H       1  UNL1        0.0524
      9 H           0.6624    0.2478   -1.0754 H       1  UNL1        0.0524
     10 H           2.5557   -0.7094   -2.0114 H       1  UNL1        0.0582
     11 H           2.5557   -1.9310   -0.7621 H       1  UNL1        0.0582
     12 H           4.7890   -1.2097   -0.0568 H       1  UNL1        0.0582
     13 H           4.7890    0.0119   -1.3061 H       1  UNL1        0.0582
     14 H           6.6823   -2.6381   -2.6754 H       1  UNL1        0.0524
     15 H           6.6823   -2.1670   -0.9928 H       1  UNL1        0.0524
     16 H           6.6823   -0.9454   -2.2421 H       1  UNL1        0.0524
@<TRIPOS>BOND
     1     1     2    1
     2     2     3    1
     3     3     4    1
     4     4     5    1
     5     5     6    1
     6     1     7    1
     7     1     8    1
     8     1     9    1
     9     3    10    1
    10     3    11    1
    11     4    12    1
    12     4    13    1
    13     6    14    1
    14     6    15    1
    15     6    16    1
