@<TRIPOS>MOLECULE
*****
 41 42 0 0 0
SMALL
GASTEIGER

@<TRIPOS>ATOM
      1 C           0.9257   -0.0407   -0.0531 C.3     1  UNL1       -0.0126
      2 N           2.3957   -0.0407   -0.0531 N.3     1  UNL1       -0.3002
      3 C           2.8857    0.0560   -1.4357 C.3     1  UNL1       -0.0126
      4 C           2.8857    1.1083    0.7219 C.3     1  UNL1        0.0754
      5 C           4.4057    1.1083    0.7219 C.2     1  UNL1        0.2297
      6 O           5.0411    0.1959    0.1064 O.2     1  UNL1       -0.2742
      7 N           5.1407    2.1637    1.4338 N.am    1  UNL1       -0.2974
      8 C           6.6107    2.1637    1.4338 C.3     1  UNL1        0.0306
      9 C           7.1173    3.3518    2.2351 C.3     1  UNL1        0.0308
     10 N           8.5873    3.3518    2.2351 N.am    1  UNL1       -0.2945
     11 C           9.3223    2.2964    1.5232 C.2     1  UNL1        0.2467
     12 O          10.5932    2.2964    1.5232 O.2     1  UNL1       -0.2700
     13 C           8.5623    1.2051    0.7871 C.ar    1  UNL1        0.0369
     14 C           9.2824    0.1711    0.0897 C.ar    1  UNL1       -0.0496
     15 C           8.5623   -0.8630   -0.6078 C.ar    1  UNL1       -0.0610
     16 C           9.2824   -1.8970   -1.3052 C.ar    1  UNL1       -0.0617
     17 C           8.5623   -2.9310   -2.0027 C.ar    1  UNL1       -0.0610
     18 C           7.1221    1.2051    0.7871 C.ar    1  UNL1       -0.0496
     19 C           9.3223    4.4072    2.9470 C.3     1  UNL1        0.0308
     20 C           4.4057    3.2191    2.1456 C.3     1  UNL1        0.0306
     21 H           0.5690   -0.8770   -0.6172 H       1  UNL1        0.0391
     22 H           0.5690    0.8660   -0.4954 H       1  UNL1        0.0391
     23 H           0.5690   -0.1110    0.9532 H       1  UNL1        0.0391
     24 H           2.5290   -0.7803   -1.9998 H       1  UNL1        0.0391
     25 H           3.9557    0.0560   -1.4357 H       1  UNL1        0.0391
     26 H           2.5290    0.9627   -1.8779 H       1  UNL1        0.0391
     27 H           2.5290    1.0380    1.7282 H       1  UNL1        0.0522
     28 H           2.5290    2.0150    0.2796 H       1  UNL1        0.0522
     29 H           6.9673    2.2341    0.4274 H       1  UNL1        0.0480
     30 H           6.9673    1.2570    1.8760 H       1  UNL1        0.0480
     31 H           6.7607    3.2814    3.2415 H       1  UNL1        0.0480
     32 H           6.7607    4.2585    1.7929 H       1  UNL1        0.0480
     33 H          10.3144    0.1711    0.0897 H       1  UNL1        0.0625
     34 H           7.5303   -0.8630   -0.6078 H       1  UNL1        0.0618
     35 H          10.3144   -1.8970   -1.3052 H       1  UNL1        0.0618
     36 H           8.4375   -3.7803   -2.5755 H       1  UNL1        0.0618
     37 H           6.2974    1.7194    1.1340 H       1  UNL1        0.0625
     38 H           9.8083    5.2119    2.4360 H       1  UNL1        0.0480
     39 H          10.0318    4.5468    3.7358 H       1  UNL1        0.0480
     40 H           3.8324    3.8985    1.5501 H       1  UNL1        0.0480
     41 H           3.6378    3.0954    2.8804 H       1  UNL1        0.0480
@<TRIPOS>BOND
     1     1     2    1
     2     2     3    1
     3     2     4    1
     4     4     5    1
     5     5     6    2
     6     5     7   am
     7     7     8    1
     8     8     9    1
     9     9    10    1
    10    10    11   am
    11    11    12    2
    12    11    13    1
    13    13    14   ar
    14    14    15   ar
    15    15    16   ar
    16    16    17   ar
    17    17    18   ar
    18    13    18   ar
    19    10    19    1
    20    19    20    1
    21     7    20    1
    22     1    21    1
    23     1    22    1
    24     1    23    1
    25     3    24    1
    26     3    25    1
    27     3    26    1
    28     4    27    1
    29     4    28    1
    30     8    29    1
    31     8    30    1
    32     9    31    1
    33     9    32    1
    34    14    33    1
    35    15    34    1
    36    16    35    1
    37    17    36    1
    38    18    37    1
    39    19    38    1
    40    19    39    1
    41    20    40    1
    42    20    41    1
