@<TRIPOS>MOLECULE
*****
 17 16 0 0 0
SMALL
GASTEIGER

@<TRIPOS>ATOM
      1 C           1.0517    0.0701    0.0491 C.3     1  UNL1       -0.0653
      2 C           2.5717    0.0701    0.0491 C.3     1  UNL1       -0.0559
      3 C           3.0784   -1.2504   -0.5077 C.3     1  UNL1       -0.0536
      4 C           4.5984   -1.2504   -0.5077 C.3     1  UNL1       -0.0559
      5 C           5.1051   -2.5708   -1.0646 C.3     1  UNL1       -0.0653
      6 H           0.6951    0.9996    0.4411 H       1  UNL1        0.0230
      7 H           0.6951   -0.7341    0.6581 H       1  UNL1        0.0230
      8 H           0.6951   -0.0552   -0.9519 H       1  UNL1        0.0230
      9 H           2.9284    0.1954    1.0501 H       1  UNL1        0.0263
     10 H           2.9284    0.8743   -0.5599 H       1  UNL1        0.0263
     11 H           2.7217   -1.3757   -1.5087 H       1  UNL1        0.0265
     12 H           2.7217   -2.0546    0.1013 H       1  UNL1        0.0265
     13 H           4.9551   -1.1251    0.4933 H       1  UNL1        0.0263
     14 H           4.9551   -0.4461   -1.1167 H       1  UNL1        0.0263
     15 H           4.7484   -3.3751   -0.4556 H       1  UNL1        0.0230
     16 H           6.1751   -2.5708   -1.0646 H       1  UNL1        0.0230
     17 H           4.7484   -2.6961   -2.0656 H       1  UNL1        0.0230
@<TRIPOS>BOND
     1     1     2    1
     2     2     3    1
     3     3     4    1
     4     4     5    1
     5     1     6    1
     6     1     7    1
     7     1     8    1
     8     2     9    1
     9     2    10    1
    10     3    11    1
    11     3    12    1
    12     4    13    1
    13     4    14    1
    14     5    15    1
    15     5    16    1
    16     5    17    1
