@<TRIPOS>MOLECULE
*****
 33 33 0 0 0
SMALL
GASTEIGER

@<TRIPOS>ATOM
      1 C           1.0994    0.0067    0.0088 C.3     1  UNL1       -0.0416
      2 C           2.6194    0.0067    0.0088 C.3     1  UNL1        0.0449
      3 O           3.0927   -1.3133    0.2323 O.3     1  UNL1       -0.3778
      4 C           4.5127   -1.3133    0.2323 C.3     1  UNL1        0.0710
      5 C           5.0194   -2.7263    0.4716 C.3     1  UNL1        0.0711
      6 O           6.4394   -2.7263    0.4716 O.3     1  UNL1       -0.3742
      7 C           6.9127   -4.0463    0.6951 C.3     1  UNL1        0.0818
      8 C           8.4327   -4.0463    0.6951 C.3     1  UNL1        0.1128
      9 O           8.9060   -5.3663    0.9186 O.3     1  UNL1       -0.4897
     10 C          10.3021   -5.6221    0.9620 C.ar    1  UNL1        0.1206
     11 C          10.7822   -6.9609    1.1887 C.ar    1  UNL1       -0.0199
     12 C          12.1981   -7.2204    1.2326 C.ar    1  UNL1       -0.0583
     13 C          12.6782   -8.5592    1.4593 C.ar    1  UNL1       -0.0615
     14 C          14.0941   -8.8187    1.5033 C.ar    1  UNL1       -0.0583
     15 C          11.2380   -4.5428    0.7792 C.ar    1  UNL1       -0.0199
     16 H           0.7427    1.0013   -0.1596 H       1  UNL1        0.0252
     17 H           0.7427   -0.3448    0.9544 H       1  UNL1        0.0252
     18 H           0.7427   -0.6365   -0.7684 H       1  UNL1        0.0252
     19 H           2.9761    0.6498    0.7860 H       1  UNL1        0.0557
     20 H           2.9761    0.3581   -0.9368 H       1  UNL1        0.0557
     21 H           4.8694   -0.6702    1.0095 H       1  UNL1        0.0583
     22 H           4.8694   -0.9619   -0.7133 H       1  UNL1        0.0583
     23 H           4.6627   -3.3695   -0.3056 H       1  UNL1        0.0583
     24 H           4.6627   -3.0778    1.4172 H       1  UNL1        0.0583
     25 H           6.5560   -4.6895   -0.0820 H       1  UNL1        0.0594
     26 H           6.5560   -4.3978    1.6407 H       1  UNL1        0.0594
     27 H           8.7894   -3.4031    1.4723 H       1  UNL1        0.0720
     28 H           8.7894   -3.6948   -0.2505 H       1  UNL1        0.0720
     29 H          10.1116   -7.7343    1.3196 H       1  UNL1        0.0654
     30 H          12.8688   -6.4470    1.1016 H       1  UNL1        0.0619
     31 H          12.0076   -9.3326    1.5903 H       1  UNL1        0.0618
     32 H          14.9539   -9.3814    1.5986 H       1  UNL1        0.0619
     33 H          11.3025   -3.5273    0.6072 H       1  UNL1        0.0654
@<TRIPOS>BOND
     1     1     2    1
     2     2     3    1
     3     3     4    1
     4     4     5    1
     5     5     6    1
     6     6     7    1
     7     7     8    1
     8     8     9    1
     9     9    10    1
    10    10    11   ar
    11    11    12   ar
    12    12    13   ar
    13    13    14   ar
    14    14    15   ar
    15    10    15   ar
    16     1    16    1
    17     1    17    1
    18     1    18    1
    19     2    19    1
    20     2    20    1
    21     4    21    1
    22     4    22    1
    23     5    23    1
    24     5    24    1
    25     7    25    1
    26     7    26    1
    27     8    27    1
    28     8    28    1
    29    11    29    1
    30    12    30    1
    31    13    31    1
    32    14    32    1
    33    15    33    1
