@<TRIPOS>MOLECULE
*****
 45 44 0 0 0
SMALL
GASTEIGER

@<TRIPOS>ATOM
      1 C           0.9335   -0.0002    0.0747 C.3     1  UNL1        0.0365
      2 O           2.3535   -0.0002    0.0747 O.3     1  UNL1       -0.3807
      3 C           2.8268    1.3383    0.0433 C.3     1  UNL1        0.0706
      4 C           4.3468    1.3383    0.0433 C.3     1  UNL1        0.0711
      5 O           4.8202    2.6767    0.0118 O.3     1  UNL1       -0.3752
      6 C           6.2402    2.6767    0.0118 C.3     1  UNL1        0.0711
      7 C           6.7468    4.1094   -0.0218 C.3     1  UNL1        0.0711
      8 O           8.1668    4.1094   -0.0218 O.3     1  UNL1       -0.3752
      9 C           8.6402    5.4478   -0.0532 C.3     1  UNL1        0.0711
     10 C          10.1602    5.4478   -0.0532 C.3     1  UNL1        0.0711
     11 O          10.6335    6.7862   -0.0847 O.3     1  UNL1       -0.3760
     12 C          12.0535    6.7862   -0.0847 C.3     1  UNL1        0.0632
     13 C          12.5601    8.2189   -0.1183 C.3     1  UNL1        0.0350
     14 N          14.0301    8.2189   -0.1183 N.am    1  UNL1       -0.3131
     15 C          14.7651    9.4916   -0.1482 C.2     1  UNL1        0.2135
     16 O          14.1297   10.5919   -0.1740 O.2     1  UNL1       -0.2758
     17 C          16.2851    9.4916   -0.1482 C.3     1  UNL1        0.0303
     18 C          16.7918   10.9243   -0.1818 C.3     1  UNL1        0.0110
     19 C          18.3118   10.9243   -0.1818 C.2     1  UNL1        0.1208
     20 O          18.9473   12.0246   -0.2077 O.2     1  UNL1       -0.3010
     21 H           0.5768   -1.0087    0.0984 H       1  UNL1        0.0524
     22 H           0.5768    0.4836   -0.8106 H       1  UNL1        0.0524
     23 H           0.5768    0.5246    0.9363 H       1  UNL1        0.0524
     24 H           2.4702    1.8630    0.9048 H       1  UNL1        0.0582
     25 H           2.4702    1.8220   -0.8420 H       1  UNL1        0.0582
     26 H           4.7035    0.8135   -0.8183 H       1  UNL1        0.0583
     27 H           4.7035    0.8545    0.9285 H       1  UNL1        0.0583
     28 H           6.5968    2.1519   -0.8497 H       1  UNL1        0.0583
     29 H           6.5968    2.1929    0.8971 H       1  UNL1        0.0583
     30 H           6.3902    4.6341    0.8398 H       1  UNL1        0.0583
     31 H           6.3902    4.5931   -0.9071 H       1  UNL1        0.0583
     32 H           8.2835    5.9726    0.8083 H       1  UNL1        0.0583
     33 H           8.2835    5.9315   -0.9385 H       1  UNL1        0.0583
     34 H          10.5168    4.9230   -0.9148 H       1  UNL1        0.0583
     35 H          10.5168    4.9640    0.8320 H       1  UNL1        0.0583
     36 H          12.4101    6.2614   -0.9462 H       1  UNL1        0.0575
     37 H          12.4101    6.3025    0.8006 H       1  UNL1        0.0575
     38 H          12.2035    8.7437    0.7433 H       1  UNL1        0.0484
     39 H          12.2035    8.7026   -1.0036 H       1  UNL1        0.0484
     40 H          14.5224    7.3665   -0.0983 H       1  UNL1        0.1488
     41 H          16.6418    8.9668   -1.0098 H       1  UNL1        0.0362
     42 H          16.6418    9.0078    0.7371 H       1  UNL1        0.0362
     43 H          16.4351   11.4490    0.6797 H       1  UNL1        0.0343
     44 H          16.4351   11.4080   -1.0671 H       1  UNL1        0.0343
     45 H          18.8278   10.0308   -0.1609 H       1  UNL1        0.1026
@<TRIPOS>BOND
     1     1     2    1
     2     2     3    1
     3     3     4    1
     4     4     5    1
     5     5     6    1
     6     6     7    1
     7     7     8    1
     8     8     9    1
     9     9    10    1
    10    10    11    1
    11    11    12    1
    12    12    13    1
    13    13    14    1
    14    14    15   am
    15    15    16    2
    16    15    17    1
    17    17    18    1
    18    18    19    1
    19    19    20    2
    20     1    21    1
    21     1    22    1
    22     1    23    1
    23     3    24    1
    24     3    25    1
    25     4    26    1
    26     4    27    1
    27     6    28    1
    28     6    29    1
    29     7    30    1
    30     7    31    1
    31     9    32    1
    32     9    33    1
    33    10    34    1
    34    10    35    1
    35    12    36    1
    36    12    37    1
    37    13    38    1
    38    13    39    1
    39    14    40    1
    40    17    41    1
    41    17    42    1
    42    18    43    1
    43    18    44    1
    44    19    45    1
