@<TRIPOS>MOLECULE
*****
 50 49 0 0 0
SMALL
GASTEIGER

@<TRIPOS>ATOM
      1 N           1.0388   -0.0873   -0.0297 N.1     1  UNL1       -0.1908
      2 C           2.2997   -0.0873   -0.0297 C.1     1  UNL1        0.1020
      3 C           3.8197   -0.0873   -0.0297 C.2     1  UNL1        0.0869
      4 C           4.5797    0.3160   -1.2828 C.2     1  UNL1        0.1601
      5 O           3.9443    0.6532   -2.3305 O.2     1  UNL1       -0.2950
      6 C           4.4999   -0.4482    1.0917 C.2     1  UNL1       -0.0635
      7 C           6.0199   -0.4482    1.0917 C.3     1  UNL1       -0.0331
      8 C           6.5266   -0.8872    2.4559 C.3     1  UNL1       -0.0475
      9 C           8.0466   -0.8872    2.4559 C.3     1  UNL1       -0.0292
     10 C           8.5532   -1.3262    3.8201 C.3     1  UNL1        0.0478
     11 O           9.9732   -1.3262    3.8201 O.3     1  UNL1       -0.3775
     12 C          10.4466   -1.7364    5.0945 C.3     1  UNL1        0.0710
     13 C          11.9666   -1.7364    5.0945 C.3     1  UNL1        0.0711
     14 O          12.4399   -2.1465    6.3689 O.3     1  UNL1       -0.3752
     15 C          13.8599   -2.1465    6.3689 C.3     1  UNL1        0.0711
     16 C          14.3666   -2.5855    7.7331 C.3     1  UNL1        0.0711
     17 O          15.7866   -2.5855    7.7331 O.3     1  UNL1       -0.3752
     18 C          16.2599   -2.9957    9.0075 C.3     1  UNL1        0.0711
     19 C          17.7799   -2.9957    9.0075 C.3     1  UNL1        0.0711
     20 O          18.2532   -3.4058   10.2819 O.3     1  UNL1       -0.3752
     21 C          19.6732   -3.4058   10.2819 C.3     1  UNL1        0.0708
     22 C          20.1799   -3.8448   11.6461 C.3     1  UNL1        0.0676
     23 O          21.5999   -3.8448   11.6461 O.3     1  UNL1       -0.3927
     24 H           5.6117    0.3160   -1.2828 H       1  UNL1        0.1089
     25 H           3.9839   -0.7220    1.9425 H       1  UNL1        0.0586
     26 H           6.3766    0.5380    0.8792 H       1  UNL1        0.0308
     27 H           6.3766   -1.1253    0.3440 H       1  UNL1        0.0308
     28 H           6.1699   -1.8734    2.6684 H       1  UNL1        0.0269
     29 H           6.1699   -0.2101    3.2037 H       1  UNL1        0.0269
     30 H           8.4033    0.0990    2.2434 H       1  UNL1        0.0287
     31 H           8.4033   -1.5643    1.7081 H       1  UNL1        0.0287
     32 H           8.1966   -2.3124    4.0326 H       1  UNL1        0.0560
     33 H           8.1966   -0.6491    4.5679 H       1  UNL1        0.0560
     34 H          10.0899   -2.7225    5.3070 H       1  UNL1        0.0583
     35 H          10.0899   -1.0592    5.8423 H       1  UNL1        0.0583
     36 H          12.3232   -0.7502    4.8820 H       1  UNL1        0.0583
     37 H          12.3232   -2.4135    4.3467 H       1  UNL1        0.0583
     38 H          14.2166   -1.1603    6.1564 H       1  UNL1        0.0583
     39 H          14.2166   -2.8236    5.6211 H       1  UNL1        0.0583
     40 H          14.0099   -3.5717    7.9456 H       1  UNL1        0.0583
     41 H          14.0099   -1.9084    8.4809 H       1  UNL1        0.0583
     42 H          15.9032   -3.9818    9.2200 H       1  UNL1        0.0583
     43 H          15.9032   -2.3185    9.7553 H       1  UNL1        0.0583
     44 H          18.1366   -2.0095    8.7950 H       1  UNL1        0.0583
     45 H          18.1366   -3.6728    8.2597 H       1  UNL1        0.0583
     46 H          20.0299   -2.4196   10.0694 H       1  UNL1        0.0583
     47 H          20.0299   -4.0829    9.5341 H       1  UNL1        0.0583
     48 H          19.8232   -4.8310   11.8586 H       1  UNL1        0.0580
     49 H          19.8232   -3.1677   12.3939 H       1  UNL1        0.0580
     50 H          21.9232   -4.4587   10.9682 H       1  UNL1        0.2095
@<TRIPOS>BOND
     1     1     2    3
     2     2     3    1
     3     3     4    1
     4     4     5    2
     5     3     6    2
     6     6     7    1
     7     7     8    1
     8     8     9    1
     9     9    10    1
    10    10    11    1
    11    11    12    1
    12    12    13    1
    13    13    14    1
    14    14    15    1
    15    15    16    1
    16    16    17    1
    17    17    18    1
    18    18    19    1
    19    19    20    1
    20    20    21    1
    21    21    22    1
    22    22    23    1
    23     4    24    1
    24     6    25    1
    25     7    26    1
    26     7    27    1
    27     8    28    1
    28     8    29    1
    29     9    30    1
    30     9    31    1
    31    10    32    1
    32    10    33    1
    33    12    34    1
    34    12    35    1
    35    13    36    1
    36    13    37    1
    37    15    38    1
    38    15    39    1
    39    16    40    1
    40    16    41    1
    41    18    42    1
    42    18    43    1
    43    19    44    1
    44    19    45    1
    45    21    46    1
    46    21    47    1
    47    22    48    1
    48    22    49    1
    49    23    50    1
