@<TRIPOS>MOLECULE
*****
 39 39 0 0 0
SMALL
GASTEIGER

@<TRIPOS>ATOM
      1 N           0.9501   -0.0211    0.0841 N.3     1  UNL1       -0.3279
      2 C           2.4201   -0.0211    0.0841 C.3     1  UNL1        0.0166
      3 C           2.9268   -0.8386    1.2611 C.3     1  UNL1        0.0600
      4 O           4.3468   -0.8386    1.2611 O.3     1  UNL1       -0.3773
      5 C           4.8201   -1.6023    2.3607 C.3     1  UNL1        0.0604
      6 C           6.3401   -1.6023    2.3607 C.3     1  UNL1        0.0227
      7 N           6.8301   -2.3928    3.4991 N.3     1  UNL1       -0.2957
      8 C           8.3001   -2.3928    3.4991 C.3     1  UNL1       -0.0007
      9 C           8.8068   -3.2103    4.6761 C.3     1  UNL1       -0.0401
     10 C          10.3268   -3.2103    4.6761 C.3     1  UNL1       -0.0504
     11 C          10.8334   -4.0278    5.8532 C.3     1  UNL1       -0.0358
     12 C           6.3401   -3.7739    3.3836 C.3     1  UNL1        0.0260
     13 C           4.8201   -3.7739    3.3836 C.3     1  UNL1        0.0270
     14 N           4.3301   -5.1550    3.2681 N.am    1  UNL1       -0.3164
     15 C           2.8849   -5.4227    3.2457 C.2     1  UNL1        0.2000
     16 O           2.4612   -6.6168    3.1458 O.2     1  UNL1       -0.2795
     17 H           0.6101    0.5274   -0.7058 H       1  UNL1        0.1183
     18 H           0.6101    0.3886    0.9541 H       1  UNL1        0.1183
     19 H           2.7768    0.9842    0.1681 H       1  UNL1        0.0444
     20 H           2.7768   -0.4510   -0.8286 H       1  UNL1        0.0444
     21 H           2.5701   -1.8439    1.1771 H       1  UNL1        0.0572
     22 H           2.5701   -0.4087    2.1738 H       1  UNL1        0.0572
     23 H           4.4635   -2.6076    2.2767 H       1  UNL1        0.0572
     24 H           4.4635   -1.1724    3.2734 H       1  UNL1        0.0572
     25 H           6.6968   -0.5970    2.4448 H       1  UNL1        0.0449
     26 H           6.6968   -2.0321    1.4481 H       1  UNL1        0.0449
     27 H           8.6568   -1.3875    3.5831 H       1  UNL1        0.0427
     28 H           8.6568   -2.8227    2.5864 H       1  UNL1        0.0427
     29 H           8.4501   -4.2156    4.5920 H       1  UNL1        0.0278
     30 H           8.4501   -2.7805    5.5888 H       1  UNL1        0.0278
     31 H          10.6835   -2.2050    4.7602 H       1  UNL1        0.0266
     32 H          10.6835   -3.6401    3.7635 H       1  UNL1        0.0266
     33 H          10.9731   -3.5998    6.8238 H       1  UNL1        0.0281
     34 H          11.6011   -4.7307    6.1011 H       1  UNL1        0.0281
     35 H           6.1319   -4.6625    2.8249 H       1  UNL1        0.0478
     36 H           4.4635   -3.1985    2.5550 H       1  UNL1        0.0477
     37 H           4.4635   -3.3441    4.2962 H       1  UNL1        0.0477
     38 H           4.9699   -5.9007    3.2057 H       1  UNL1        0.1485
     39 H           2.2142   -4.6411    3.3111 H       1  UNL1        0.1251
@<TRIPOS>BOND
     1     1     2    1
     2     2     3    1
     3     3     4    1
     4     4     5    1
     5     5     6    1
     6     6     7    1
     7     7     8    1
     8     8     9    1
     9     9    10    1
    10    10    11    1
    11    11    12    1
    12     7    12    1
    13    12    13    1
    14    13    14    1
    15    14    15   am
    16    15    16    2
    17     1    17    1
    18     1    18    1
    19     2    19    1
    20     2    20    1
    21     3    21    1
    22     3    22    1
    23     5    23    1
    24     5    24    1
    25     6    25    1
    26     6    26    1
    27     8    27    1
    28     8    28    1
    29     9    29    1
    30     9    30    1
    31    10    31    1
    32    10    32    1
    33    11    33    1
    34    11    34    1
    35    12    35    1
    36    13    36    1
    37    13    37    1
    38    14    38    1
    39    15    39    1
