@<TRIPOS>MOLECULE
*****
 42 43 0 0 0
SMALL
GASTEIGER

@<TRIPOS>ATOM
      1 C           0.9929    0.0939   -0.0338 C.3     1  UNL1        0.0124
      2 C           2.5129    0.0939   -0.0338 C.2     1  UNL1        0.2125
      3 O           3.1484    1.1093    0.3908 O.2     1  UNL1       -0.2759
      4 N           3.2479   -1.0807   -0.5248 N.am    1  UNL1       -0.3017
      5 C           4.7179   -1.0807   -0.5248 C.3     1  UNL1        0.0149
      6 C           5.2246   -2.4029   -1.0775 C.3     1  UNL1       -0.0342
      7 C           6.7446   -2.4029   -1.0775 C.3     1  UNL1       -0.0370
      8 C           7.2512   -2.2205    0.3439 C.3     1  UNL1       -0.0373
      9 C           6.7446   -0.8983    0.8966 C.3     1  UNL1       -0.0008
     10 N           7.2346   -0.7219    2.2713 N.3     1  UNL1       -0.2999
     11 C           6.7446    0.5568    2.8058 C.3     1  UNL1        0.0115
     12 C           7.2512    0.7392    4.2273 C.3     1  UNL1        0.0087
     13 N           6.7612    2.0179    4.7618 N.3     1  UNL1       -0.3136
     14 C           7.2512    2.1943    6.1365 C.3     1  UNL1        0.0087
     15 C           8.7046   -0.7219    2.2713 C.3     1  UNL1        0.0115
     16 C           7.2512   -3.7251   -1.6302 C.3     1  UNL1       -0.0342
     17 C           2.5129   -2.2552   -1.0158 C.3     1  UNL1        0.0149
     18 H           0.6362    1.0246    0.3553 H       1  UNL1        0.0323
     19 H           0.6362   -0.7085    0.5778 H       1  UNL1        0.0323
     20 H           0.6362   -0.0345   -1.0344 H       1  UNL1        0.0323
     21 H           5.0746   -0.9523    0.4758 H       1  UNL1        0.0464
     22 H           5.0746   -0.2783   -1.1363 H       1  UNL1        0.0464
     23 H           4.8679   -2.5313   -2.0781 H       1  UNL1        0.0283
     24 H           4.8679   -3.2052   -0.4660 H       1  UNL1        0.0283
     25 H           7.1012   -1.6005   -1.6890 H       1  UNL1        0.0302
     26 H           8.3212   -2.2205    0.3439 H       1  UNL1        0.0280
     27 H           6.8946   -3.0228    0.9554 H       1  UNL1        0.0280
     28 H           5.6746   -0.8983    0.8966 H       1  UNL1        0.0427
     29 H           7.1012   -0.0959    0.2851 H       1  UNL1        0.0427
     30 H           5.6746    0.5568    2.8058 H       1  UNL1        0.0439
     31 H           7.1012    1.3592    2.1943 H       1  UNL1        0.0439
     32 H           8.3212    0.7392    4.2273 H       1  UNL1        0.0437
     33 H           6.8946   -0.0631    4.8388 H       1  UNL1        0.0437
     34 H           5.7412    2.0179    4.7618 H       1  UNL1        0.1220
     35 H           6.7274    1.7978    6.9810 H       1  UNL1        0.0437
     36 H           7.6327    2.9550    6.7852 H       1  UNL1        0.0437
     37 H           9.2002   -1.6414    2.5031 H       1  UNL1        0.0439
     38 H           9.3767   -0.4915    1.4712 H       1  UNL1        0.0439
     39 H           7.6914   -4.4619   -0.9914 H       1  UNL1        0.0283
     40 H           7.8850   -4.0713   -2.4198 H       1  UNL1        0.0283
     41 H           1.9351   -2.7938   -0.2940 H       1  UNL1        0.0464
     42 H           1.7470   -2.2567   -1.7630 H       1  UNL1        0.0464
@<TRIPOS>BOND
     1     1     2    1
     2     2     3    2
     3     2     4   am
     4     4     5    1
     5     5     6    1
     6     6     7    1
     7     7     8    1
     8     8     9    1
     9     9    10    1
    10    10    11    1
    11    11    12    1
    12    12    13    1
    13    13    14    1
    14    14    15    1
    15    10    15    1
    16     7    16    1
    17    16    17    1
    18     4    17    1
    19     1    18    1
    20     1    19    1
    21     1    20    1
    22     5    21    1
    23     5    22    1
    24     6    23    1
    25     6    24    1
    26     7    25    1
    27     8    26    1
    28     8    27    1
    29     9    28    1
    30     9    29    1
    31    11    30    1
    32    11    31    1
    33    12    32    1
    34    12    33    1
    35    13    34    1
    36    14    35    1
    37    14    36    1
    38    15    37    1
    39    15    38    1
    40    16    39    1
    41    16    40    1
    42    17    41    1
    43    17    42    1
