@<TRIPOS>MOLECULE
*****
 40 40 0 0 0
SMALL
GASTEIGER

@<TRIPOS>ATOM
      1 C           1.0162   -0.0537   -0.0828 C.3     1  UNL1       -0.0127
      2 N           2.4862   -0.0537   -0.0828 N.3     1  UNL1       -0.3029
      3 C           2.9762   -1.4043    0.2280 C.3     1  UNL1        0.0114
      4 C           4.4962   -1.4043    0.2280 C.3     1  UNL1        0.0118
      5 N           4.9862   -2.7549    0.5388 N.3     1  UNL1       -0.2977
      6 C           4.4962   -3.6994   -0.4755 C.3     1  UNL1        0.0224
      7 C           2.9762   -3.6994   -0.4755 C.3     1  UNL1        0.0605
      8 O           2.5029   -4.6118   -1.4552 O.3     1  UNL1       -0.3762
      9 C           1.0829   -4.6117   -1.4552 C.3     1  UNL1        0.0711
     10 C           0.5762   -5.5884   -2.5040 C.3     1  UNL1        0.0711
     11 O          -0.8438   -5.5884   -2.5040 O.3     1  UNL1       -0.3752
     12 C          -1.3171   -6.5007   -3.4838 C.3     1  UNL1        0.0708
     13 C          -2.8371   -6.5007   -3.4837 C.3     1  UNL1        0.0676
     14 O          -3.3105   -7.4131   -4.4635 O.3     1  UNL1       -0.3927
     15 C           6.4562   -2.7549    0.5388 C.3     1  UNL1        0.0118
     16 C           2.9762    0.8908    0.9315 C.3     1  UNL1        0.0114
     17 H           0.6595   -0.7411   -0.8211 H       1  UNL1        0.0391
     18 H           0.6595    0.9295   -0.3091 H       1  UNL1        0.0391
     19 H           0.6595   -0.3493    0.8817 H       1  UNL1        0.0391
     20 H           2.6195   -2.0918   -0.5103 H       1  UNL1        0.0439
     21 H           2.6195   -1.6999    1.1925 H       1  UNL1        0.0439
     22 H           4.8529   -0.7168    0.9663 H       1  UNL1        0.0439
     23 H           4.8529   -1.1087   -0.7365 H       1  UNL1        0.0439
     24 H           4.8529   -4.6825   -0.2492 H       1  UNL1        0.0449
     25 H           4.8529   -3.4038   -1.4400 H       1  UNL1        0.0449
     26 H           2.6195   -2.7163   -0.7017 H       1  UNL1        0.0572
     27 H           2.6195   -3.9950    0.4891 H       1  UNL1        0.0572
     28 H           0.7262   -3.6286   -1.6815 H       1  UNL1        0.0583
     29 H           0.7262   -4.9074   -0.4907 H       1  UNL1        0.0583
     30 H           0.9329   -6.5715   -2.2778 H       1  UNL1        0.0583
     31 H           0.9329   -5.2927   -3.4685 H       1  UNL1        0.0583
     32 H          -0.9605   -7.4838   -3.2575 H       1  UNL1        0.0583
     33 H          -0.9605   -6.2051   -4.4483 H       1  UNL1        0.0583
     34 H          -3.1938   -5.5176   -3.7100 H       1  UNL1        0.0580
     35 H          -3.1938   -6.7963   -2.5192 H       1  UNL1        0.0580
     36 H          -2.9871   -7.1451   -5.3379 H       1  UNL1        0.2095
     37 H           7.0238   -2.9038   -0.3559 H       1  UNL1        0.0439
     38 H           7.2813   -3.1696    1.0793 H       1  UNL1        0.0439
     39 H           3.2479    1.8727    0.6043 H       1  UNL1        0.0439
     40 H           2.4797    1.2545    1.8067 H       1  UNL1        0.0439
@<TRIPOS>BOND
     1     1     2    1
     2     2     3    1
     3     3     4    1
     4     4     5    1
     5     5     6    1
     6     6     7    1
     7     7     8    1
     8     8     9    1
     9     9    10    1
    10    10    11    1
    11    11    12    1
    12    12    13    1
    13    13    14    1
    14     5    15    1
    15    15    16    1
    16     2    16    1
    17     1    17    1
    18     1    18    1
    19     1    19    1
    20     3    20    1
    21     3    21    1
    22     4    22    1
    23     4    23    1
    24     6    24    1
    25     6    25    1
    26     7    26    1
    27     7    27    1
    28     9    28    1
    29     9    29    1
    30    10    30    1
    31    10    31    1
    32    12    32    1
    33    12    33    1
    34    13    34    1
    35    13    35    1
    36    14    36    1
    37    15    37    1
    38    15    38    1
    39    16    39    1
    40    16    40    1
