@<TRIPOS>MOLECULE
*****
 27 26 0 0 0
SMALL
GASTEIGER

@<TRIPOS>ATOM
      1 C           0.9583    0.0699    0.0581 C.3     1  UNL1        0.0365
      2 O           2.3783    0.0699    0.0581 O.3     1  UNL1       -0.3807
      3 C           2.8516    0.8384   -1.0382 C.3     1  UNL1        0.0706
      4 C           4.3716    0.8384   -1.0382 C.3     1  UNL1        0.0711
      5 O           4.8449    1.6069   -2.1344 O.3     1  UNL1       -0.3752
      6 C           6.2649    1.6069   -2.1344 C.3     1  UNL1        0.0711
      7 C           6.7716    2.4295   -3.3079 C.3     1  UNL1        0.0711
      8 O           8.1916    2.4295   -3.3079 O.3     1  UNL1       -0.3752
      9 C           8.6649    3.1980   -4.4041 C.3     1  UNL1        0.0708
     10 C          10.1849    3.1980   -4.4041 C.3     1  UNL1        0.0676
     11 O          10.6582    3.9665   -5.5004 O.3     1  UNL1       -0.3927
     12 H           0.6016   -0.5092    0.8841 H       1  UNL1        0.0524
     13 H           0.6016   -0.3559   -0.8564 H       1  UNL1        0.0524
     14 H           0.6016    1.0748    0.1465 H       1  UNL1        0.0524
     15 H           2.4949    1.8433   -0.9497 H       1  UNL1        0.0582
     16 H           2.4949    0.4126   -1.9527 H       1  UNL1        0.0582
     17 H           4.7283   -0.1665   -1.1267 H       1  UNL1        0.0583
     18 H           4.7283    1.2642   -0.1237 H       1  UNL1        0.0583
     19 H           6.6216    0.6020   -2.2229 H       1  UNL1        0.0583
     20 H           6.6216    2.0327   -1.2199 H       1  UNL1        0.0583
     21 H           6.4149    3.4344   -3.2194 H       1  UNL1        0.0583
     22 H           6.4149    2.0037   -4.2224 H       1  UNL1        0.0583
     23 H           8.3082    4.2029   -4.3156 H       1  UNL1        0.0583
     24 H           8.3082    2.7722   -5.3186 H       1  UNL1        0.0583
     25 H          10.5416    2.1931   -4.4926 H       1  UNL1        0.0580
     26 H          10.5416    3.6239   -3.4896 H       1  UNL1        0.0580
     27 H          10.3349    3.5805   -6.3294 H       1  UNL1        0.2095
@<TRIPOS>BOND
     1     1     2    1
     2     2     3    1
     3     3     4    1
     4     4     5    1
     5     5     6    1
     6     6     7    1
     7     7     8    1
     8     8     9    1
     9     9    10    1
    10    10    11    1
    11     1    12    1
    12     1    13    1
    13     1    14    1
    14     3    15    1
    15     3    16    1
    16     4    17    1
    17     4    18    1
    18     6    19    1
    19     6    20    1
    20     7    21    1
    21     7    22    1
    22     9    23    1
    23     9    24    1
    24    10    25    1
    25    10    26    1
    26    11    27    1
