@<TRIPOS>MOLECULE
*****
 46 46 0 0 0
SMALL
GASTEIGER

@<TRIPOS>ATOM
      1 C           0.9522   -0.0020   -0.0878 C.3     1  UNL1       -0.0416
      2 C           2.4722   -0.0020   -0.0878 C.3     1  UNL1        0.0449
      3 O           2.9455    1.1757    0.5489 O.3     1  UNL1       -0.3778
      4 C           4.3655    1.1757    0.5489 C.3     1  UNL1        0.0710
      5 C           4.8722    2.4364    1.2304 C.3     1  UNL1        0.0711
      6 O           6.2922    2.4364    1.2304 O.3     1  UNL1       -0.3752
      7 C           6.7655    3.6141    1.8671 C.3     1  UNL1        0.0711
      8 C           8.2855    3.6141    1.8671 C.3     1  UNL1        0.0711
      9 O           8.7588    4.7918    2.5037 O.3     1  UNL1       -0.3752
     10 C          10.1788    4.7918    2.5037 C.3     1  UNL1        0.0711
     11 C          10.6855    6.0525    3.1852 C.3     1  UNL1        0.0711
     12 O          12.1055    6.0525    3.1852 O.3     1  UNL1       -0.3757
     13 C          12.5788    7.2302    3.8219 C.3     1  UNL1        0.0673
     14 C          14.0988    7.2302    3.8219 C.3     1  UNL1        0.0665
     15 N          14.5888    8.4493    4.4810 N.ar    1  UNL1       -0.2488
     16 C          15.9582    8.6732    4.6021 C.ar    1  UNL1        0.0580
     17 C          16.4383    9.8677    5.2478 C.ar    1  UNL1        0.1666
     18 C          15.4505   10.8840    5.7972 C.2     1  UNL1        0.2632
     19 N          15.9405   12.1032    6.4563 N.am    1  UNL1       -0.3240
     20 O          14.2010   10.6797    5.6868 O.2     1  UNL1       -0.2686
     21 N          17.8076   10.0916    5.3688 N.ar    1  UNL1       -0.1248
     22 N          13.7145    9.3490    4.9673 N.ar    1  UNL1       -0.0649
     23 H           0.5955   -0.8894   -0.5676 H       1  UNL1        0.0252
     24 H           0.5955    0.8572   -0.6165 H       1  UNL1        0.0252
     25 H           0.5955    0.0263    0.9206 H       1  UNL1        0.0252
     26 H           2.8289   -0.0302   -1.0962 H       1  UNL1        0.0557
     27 H           2.8289   -0.8612    0.4409 H       1  UNL1        0.0557
     28 H           4.7222    1.1475   -0.4595 H       1  UNL1        0.0583
     29 H           4.7222    0.3165    1.0775 H       1  UNL1        0.0583
     30 H           4.5155    2.4646    2.2388 H       1  UNL1        0.0583
     31 H           4.5155    3.2956    0.7017 H       1  UNL1        0.0583
     32 H           6.4088    3.6423    2.8755 H       1  UNL1        0.0583
     33 H           6.4088    4.4733    1.3384 H       1  UNL1        0.0583
     34 H           8.6422    3.5859    0.8586 H       1  UNL1        0.0583
     35 H           8.6422    2.7549    2.3957 H       1  UNL1        0.0583
     36 H          10.5355    4.7636    1.4953 H       1  UNL1        0.0583
     37 H          10.5355    3.9326    3.0324 H       1  UNL1        0.0583
     38 H          10.3288    6.0807    4.1937 H       1  UNL1        0.0583
     39 H          10.3288    6.9116    2.6566 H       1  UNL1        0.0583
     40 H          12.2222    7.2584    4.8303 H       1  UNL1        0.0578
     41 H          12.2222    8.0894    3.2933 H       1  UNL1        0.0578
     42 H          14.4555    7.2019    2.8135 H       1  UNL1        0.0532
     43 H          14.4555    6.3710    4.3506 H       1  UNL1        0.0532
     44 H          16.6288    7.9832    4.2290 H       1  UNL1        0.0850
     45 H          16.9084   12.2615    6.5419 H       1  UNL1        0.1453
     46 H          15.3007   12.7615    6.8122 H       1  UNL1        0.1453
@<TRIPOS>BOND
     1     1     2    1
     2     2     3    1
     3     3     4    1
     4     4     5    1
     5     5     6    1
     6     6     7    1
     7     7     8    1
     8     8     9    1
     9     9    10    1
    10    10    11    1
    11    11    12    1
    12    12    13    1
    13    13    14    1
    14    14    15    1
    15    15    16   ar
    16    16    17   ar
    17    17    18    1
    18    18    19   am
    19    18    20    2
    20    17    21   ar
    21    21    22   ar
    22    15    22   ar
    23     1    23    1
    24     1    24    1
    25     1    25    1
    26     2    26    1
    27     2    27    1
    28     4    28    1
    29     4    29    1
    30     5    30    1
    31     5    31    1
    32     7    32    1
    33     7    33    1
    34     8    34    1
    35     8    35    1
    36    10    36    1
    37    10    37    1
    38    11    38    1
    39    11    39    1
    40    13    40    1
    41    13    41    1
    42    14    42    1
    43    14    43    1
    44    16    44    1
    45    19    45    1
    46    19    46    1
