@<TRIPOS>MOLECULE
*****
 50 50 0 0 0
SMALL
GASTEIGER

@<TRIPOS>ATOM
      1 N           1.0402   -0.0847   -0.0347 N.3     1  UNL1       -0.3279
      2 C           2.5102   -0.0847   -0.0347 C.3     1  UNL1        0.0166
      3 C           3.0169    0.9209    0.9863 C.3     1  UNL1        0.0600
      4 O           4.4369    0.9209    0.9863 O.3     1  UNL1       -0.3763
      5 C           4.9102    1.8604    1.9401 C.3     1  UNL1        0.0711
      6 C           6.4302    1.8604    1.9401 C.3     1  UNL1        0.0711
      7 O           6.9035    2.7999    2.8939 O.3     1  UNL1       -0.3752
      8 C           8.3235    2.7999    2.8939 C.3     1  UNL1        0.0711
      9 C           8.8302    3.8055    3.9148 C.3     1  UNL1        0.0711
     10 O          10.2502    3.8055    3.9148 O.3     1  UNL1       -0.3757
     11 C          10.7235    4.7450    4.8686 C.3     1  UNL1        0.0673
     12 C          12.2435    4.7450    4.8686 C.3     1  UNL1        0.0665
     13 N          12.7335    5.7176    5.8560 N.ar    1  UNL1       -0.2492
     14 C          14.1029    5.8962    6.0373 C.ar    1  UNL1        0.0487
     15 C          14.5829    6.8490    7.0047 C.ar    1  UNL1        0.0828
     16 C          13.5952    7.6598    7.8278 C.3     1  UNL1       -0.0071
     17 C          12.1767    7.2765    7.4387 C.3     1  UNL1       -0.0455
     18 C          11.1890    8.0873    8.2618 C.3     1  UNL1       -0.0294
     19 C           9.7705    7.7040    7.8727 C.3     1  UNL1        0.0442
     20 O           8.8477    8.4614    8.6416 O.3     1  UNL1       -0.3950
     21 N          15.9523    7.0276    7.1860 N.ar    1  UNL1       -0.1345
     22 N          11.8592    6.4352    6.5846 N.ar    1  UNL1       -0.0654
     23 H           0.7002   -0.7596   -0.7198 H       1  UNL1        0.1183
     24 H           0.7002    0.8460   -0.2766 H       1  UNL1        0.1183
     25 H           2.8669    0.1837   -1.0071 H       1  UNL1        0.0444
     26 H           2.8669   -1.0611    0.2190 H       1  UNL1        0.0444
     27 H           2.6602    0.6525    1.9587 H       1  UNL1        0.0572
     28 H           2.6602    1.8973    0.7326 H       1  UNL1        0.0572
     29 H           4.5535    1.5919    2.9125 H       1  UNL1        0.0583
     30 H           4.5535    2.8368    1.6863 H       1  UNL1        0.0583
     31 H           6.7869    2.1288    0.9676 H       1  UNL1        0.0583
     32 H           6.7869    0.8840    2.1938 H       1  UNL1        0.0583
     33 H           8.6802    3.0683    1.9214 H       1  UNL1        0.0583
     34 H           8.6802    1.8235    3.1476 H       1  UNL1        0.0583
     35 H           8.4735    3.5371    4.8873 H       1  UNL1        0.0583
     36 H           8.4735    4.7819    3.6611 H       1  UNL1        0.0583
     37 H          10.3668    4.4766    5.8411 H       1  UNL1        0.0578
     38 H          10.3668    5.7214    4.6149 H       1  UNL1        0.0578
     39 H          12.6002    5.0135    3.8962 H       1  UNL1        0.0532
     40 H          12.6002    3.7686    5.1223 H       1  UNL1        0.0532
     41 H          14.7735    5.3457    5.4785 H       1  UNL1        0.0845
     42 H          13.7468    8.7024    7.6413 H       1  UNL1        0.0329
     43 H          13.7468    7.4576    8.8675 H       1  UNL1        0.0329
     44 H          12.0251    6.2338    7.6251 H       1  UNL1        0.0270
     45 H          12.0251    7.4787    6.3989 H       1  UNL1        0.0270
     46 H          11.3406    9.1299    8.0753 H       1  UNL1        0.0287
     47 H          11.3406    7.8851    9.3015 H       1  UNL1        0.0287
     48 H           9.6189    6.6613    8.0591 H       1  UNL1        0.0557
     49 H           9.6188    7.9061    6.8329 H       1  UNL1        0.0557
     50 H           8.9851    8.2781    9.5842 H       1  UNL1        0.2094
@<TRIPOS>BOND
     1     1     2    1
     2     2     3    1
     3     3     4    1
     4     4     5    1
     5     5     6    1
     6     6     7    1
     7     7     8    1
     8     8     9    1
     9     9    10    1
    10    10    11    1
    11    11    12    1
    12    12    13    1
    13    13    14   ar
    14    14    15   ar
    15    15    16    1
    16    16    17    1
    17    17    18    1
    18    18    19    1
    19    19    20    1
    20    15    21   ar
    21    21    22   ar
    22    13    22   ar
    23     1    23    1
    24     1    24    1
    25     2    25    1
    26     2    26    1
    27     3    27    1
    28     3    28    1
    29     5    29    1
    30     5    30    1
    31     6    31    1
    32     6    32    1
    33     8    33    1
    34     8    34    1
    35     9    35    1
    36     9    36    1
    37    11    37    1
    38    11    38    1
    39    12    39    1
    40    12    40    1
    41    14    41    1
    42    16    42    1
    43    16    43    1
    44    17    44    1
    45    17    45    1
    46    18    46    1
    47    18    47    1
    48    19    48    1
    49    19    49    1
    50    20    50    1
