@<TRIPOS>MOLECULE
*****
 23 22 0 0 0
SMALL
GASTEIGER

@<TRIPOS>ATOM
      1 C           0.9090    0.0088   -0.0405 C.3     1  UNL1        0.0365
      2 O           2.3290    0.0088   -0.0405 O.3     1  UNL1       -0.3807
      3 C           2.8023    1.2257   -0.5986 C.3     1  UNL1        0.0706
      4 C           4.3223    1.2257   -0.5986 C.3     1  UNL1        0.0711
      5 O           4.7956    2.4426   -1.1568 O.3     1  UNL1       -0.3752
      6 C           6.2156    2.4426   -1.1568 C.3     1  UNL1        0.0711
      7 C           6.7223    3.7452   -1.7543 C.3     1  UNL1        0.0706
      8 O           8.1423    3.7452   -1.7543 O.3     1  UNL1       -0.3807
      9 C           8.6156    4.9621   -2.3124 C.3     1  UNL1        0.0365
     10 H           0.5523   -0.9081    0.3801 H       1  UNL1        0.0524
     11 H           0.5523    0.1031   -1.0449 H       1  UNL1        0.0524
     12 H           0.5523    0.8315    0.5433 H       1  UNL1        0.0524
     13 H           2.4456    2.0484   -0.0148 H       1  UNL1        0.0582
     14 H           2.4456    1.3199   -1.6030 H       1  UNL1        0.0582
     15 H           4.6790    0.4030   -1.1824 H       1  UNL1        0.0583
     16 H           4.6790    1.1315    0.4058 H       1  UNL1        0.0583
     17 H           6.5723    1.6199   -1.7406 H       1  UNL1        0.0583
     18 H           6.5723    2.3484   -0.1524 H       1  UNL1        0.0583
     19 H           6.3656    4.5679   -1.1705 H       1  UNL1        0.0582
     20 H           6.3656    3.8394   -2.7587 H       1  UNL1        0.0582
     21 H           9.6856    4.9621   -2.3124 H       1  UNL1        0.0524
     22 H           8.2590    5.7848   -1.7286 H       1  UNL1        0.0524
     23 H           8.2590    5.0563   -3.3168 H       1  UNL1        0.0524
@<TRIPOS>BOND
     1     1     2    1
     2     2     3    1
     3     3     4    1
     4     4     5    1
     5     5     6    1
     6     6     7    1
     7     7     8    1
     8     8     9    1
     9     1    10    1
    10     1    11    1
    11     1    12    1
    12     3    13    1
    13     3    14    1
    14     4    15    1
    15     4    16    1
    16     6    17    1
    17     6    18    1
    18     7    19    1
    19     7    20    1
    20     9    21    1
    21     9    22    1
    22     9    23    1
