@<TRIPOS>MOLECULE
*****
 27 26 0 0 0
SMALL
GASTEIGER

@<TRIPOS>ATOM
      1 C           1.0408   -0.0869   -0.0279 C.3     1  UNL1        0.0365
      2 O           2.4608   -0.0869   -0.0279 O.3     1  UNL1       -0.3807
      3 C           2.9341    0.7447   -1.0771 C.3     1  UNL1        0.0706
      4 C           4.4541    0.7447   -1.0771 C.3     1  UNL1        0.0711
      5 O           4.9274    1.5763   -2.1262 O.3     1  UNL1       -0.3752
      6 C           6.3474    1.5763   -2.1262 C.3     1  UNL1        0.0711
      7 C           6.8541    2.4665   -3.2493 C.3     1  UNL1        0.0711
      8 O           8.2741    2.4665   -3.2493 O.3     1  UNL1       -0.3752
      9 C           8.7474    3.2981   -4.2985 C.3     1  UNL1        0.0708
     10 C          10.2674    3.2981   -4.2985 C.3     1  UNL1        0.0676
     11 O          10.7407    4.1297   -5.3476 O.3     1  UNL1       -0.3927
     12 H           0.6841   -0.7136    0.7627 H       1  UNL1        0.0524
     13 H           0.6841   -0.4583   -0.9659 H       1  UNL1        0.0524
     14 H           0.6841    0.9110    0.1195 H       1  UNL1        0.0524
     15 H           2.5774    1.7427   -0.9297 H       1  UNL1        0.0582
     16 H           2.5774    0.3733   -2.0150 H       1  UNL1        0.0582
     17 H           4.8108   -0.2533   -1.2245 H       1  UNL1        0.0583
     18 H           4.8108    1.1160   -0.1391 H       1  UNL1        0.0583
     19 H           6.7041    0.5783   -2.2736 H       1  UNL1        0.0583
     20 H           6.7041    1.9476   -1.1883 H       1  UNL1        0.0583
     21 H           6.4974    3.4645   -3.1019 H       1  UNL1        0.0583
     22 H           6.4974    2.0952   -4.1873 H       1  UNL1        0.0583
     23 H           8.3907    4.2961   -4.1511 H       1  UNL1        0.0583
     24 H           8.3907    2.9268   -5.2364 H       1  UNL1        0.0583
     25 H          10.6241    2.3001   -4.4459 H       1  UNL1        0.0580
     26 H          10.6241    3.6694   -3.3605 H       1  UNL1        0.0580
     27 H          10.4174    3.7931   -6.1979 H       1  UNL1        0.2095
@<TRIPOS>BOND
     1     1     2    1
     2     2     3    1
     3     3     4    1
     4     4     5    1
     5     5     6    1
     6     6     7    1
     7     7     8    1
     8     8     9    1
     9     9    10    1
    10    10    11    1
    11     1    12    1
    12     1    13    1
    13     1    14    1
    14     3    15    1
    15     3    16    1
    16     4    17    1
    17     4    18    1
    18     6    19    1
    19     6    20    1
    20     7    21    1
    21     7    22    1
    22     9    23    1
    23     9    24    1
    24    10    25    1
    25    10    26    1
    26    11    27    1
