@<TRIPOS>MOLECULE
*****
 16 16 0 0 0
SMALL
GASTEIGER

@<TRIPOS>ATOM
      1 C           0.9043    0.0267   -0.0115 C.3     1  UNL1        0.0085
      2 C           2.4243    0.0267   -0.0115 C.3     1  UNL1        0.0085
      3 N           2.9143    0.9483    1.0236 N.3     1  UNL1       -0.3136
      4 C           4.3843    0.9483    1.0236 C.3     1  UNL1        0.0085
      5 C           4.8910    1.9013    2.0939 C.3     1  UNL1        0.0085
      6 N           0.4143   -0.8950   -1.0466 N.3     1  UNL1       -0.3136
      7 H           0.5476    1.0146   -0.2158 H       1  UNL1        0.0436
      8 H           0.5476   -0.2904    0.9462 H       1  UNL1        0.0436
      9 H           2.7810    0.3437   -0.9692 H       1  UNL1        0.0436
     10 H           2.7810   -0.9612    0.1928 H       1  UNL1        0.0436
     11 H           2.5743    0.6461    1.9365 H       1  UNL1        0.1220
     12 H           4.7410    1.2654    0.0659 H       1  UNL1        0.0436
     13 H           4.7410   -0.0396    1.2278 H       1  UNL1        0.0436
     14 H           5.2286    2.8978    1.8993 H       1  UNL1        0.0436
     15 H           5.3930    2.0028    3.0333 H       1  UNL1        0.0436
     16 H           0.0924   -1.8449   -0.8611 H       1  UNL1        0.1220
@<TRIPOS>BOND
     1     1     2    1
     2     2     3    1
     3     3     4    1
     4     4     5    1
     5     5     6    1
     6     1     6    1
     7     1     7    1
     8     1     8    1
     9     2     9    1
    10     2    10    1
    11     3    11    1
    12     4    12    1
    13     4    13    1
    14     5    14    1
    15     5    15    1
    16     6    16    1
