@<TRIPOS>MOLECULE
*****
 49 49 0 0 0
SMALL
GASTEIGER

@<TRIPOS>ATOM
      1 C           0.9152    0.0279   -0.0451 C.3     1  UNL1       -0.0416
      2 C           2.4352    0.0279   -0.0451 C.3     1  UNL1        0.0449
      3 O           2.9086    0.6982    1.1138 O.3     1  UNL1       -0.3778
      4 C           4.3286    0.6982    1.1138 C.3     1  UNL1        0.0710
      5 C           4.8352    1.4157    2.3543 C.3     1  UNL1        0.0711
      6 O           6.2552    1.4157    2.3543 O.3     1  UNL1       -0.3752
      7 C           6.7285    2.0860    3.5132 C.3     1  UNL1        0.0711
      8 C           8.2485    2.0860    3.5132 C.3     1  UNL1        0.0711
      9 O           8.7219    2.7563    4.6721 O.3     1  UNL1       -0.3752
     10 C          10.1419    2.7563    4.6721 C.3     1  UNL1        0.0711
     11 C          10.6485    3.4738    5.9127 C.3     1  UNL1        0.0711
     12 O          12.0685    3.4738    5.9127 O.3     1  UNL1       -0.3752
     13 C          12.5419    4.1441    7.0716 C.3     1  UNL1        0.0711
     14 C          14.0619    4.1441    7.0716 C.3     1  UNL1        0.0711
     15 O          14.5352    4.8144    8.2305 O.3     1  UNL1       -0.3757
     16 C          15.9552    4.8144    8.2305 C.3     1  UNL1        0.0673
     17 C          16.4619    5.5319    9.4710 C.3     1  UNL1        0.0665
     18 N          17.9319    5.5319    9.4710 N.ar    1  UNL1       -0.2495
     19 C          18.6283    6.1358   10.5151 C.ar    1  UNL1        0.0455
     20 C          20.0685    6.1358   10.5151 C.ar    1  UNL1        0.0693
     21 N          20.7649    6.7397   11.5593 N.ar    1  UNL1       -0.1380
     22 N          18.6046    4.9485    8.4623 N.ar    1  UNL1       -0.0657
     23 H           0.5586   -0.4772   -0.9184 H       1  UNL1        0.0252
     24 H           0.5586    1.0367   -0.0459 H       1  UNL1        0.0252
     25 H           0.5586   -0.4758    0.8289 H       1  UNL1        0.0252
     26 H           2.7919    0.5316   -0.9191 H       1  UNL1        0.0557
     27 H           2.7919   -0.9809   -0.0443 H       1  UNL1        0.0557
     28 H           4.6852    1.2019    0.2398 H       1  UNL1        0.0583
     29 H           4.6852   -0.3106    1.1146 H       1  UNL1        0.0583
     30 H           4.4785    0.9120    3.2284 H       1  UNL1        0.0583
     31 H           4.4785    2.4245    2.3535 H       1  UNL1        0.0583
     32 H           6.3719    1.5823    4.3873 H       1  UNL1        0.0583
     33 H           6.3719    3.0948    3.5124 H       1  UNL1        0.0583
     34 H           8.6052    2.5897    2.6392 H       1  UNL1        0.0583
     35 H           8.6052    1.0772    3.5140 H       1  UNL1        0.0583
     36 H          10.4985    3.2600    3.7981 H       1  UNL1        0.0583
     37 H          10.4985    1.7475    4.6729 H       1  UNL1        0.0583
     38 H          10.2919    2.9701    6.7867 H       1  UNL1        0.0583
     39 H          10.2919    4.4826    5.9119 H       1  UNL1        0.0583
     40 H          12.1852    3.6404    7.9456 H       1  UNL1        0.0583
     41 H          12.1852    5.1529    7.0708 H       1  UNL1        0.0583
     42 H          14.4185    4.6478    6.1975 H       1  UNL1        0.0583
     43 H          14.4185    3.1353    7.0723 H       1  UNL1        0.0583
     44 H          16.3119    5.3181    7.3564 H       1  UNL1        0.0578
     45 H          16.3119    3.8056    8.2312 H       1  UNL1        0.0578
     46 H          16.1052    5.0282   10.3450 H       1  UNL1        0.0532
     47 H          16.1052    6.5407    9.4702 H       1  UNL1        0.0532
     48 H          18.1123    6.5833   11.2888 H       1  UNL1        0.0842
     49 H          20.5845    5.6883    9.7415 H       1  UNL1        0.0864
@<TRIPOS>BOND
     1     1     2    1
     2     2     3    1
     3     3     4    1
     4     4     5    1
     5     5     6    1
     6     6     7    1
     7     7     8    1
     8     8     9    1
     9     9    10    1
    10    10    11    1
    11    11    12    1
    12    12    13    1
    13    13    14    1
    14    14    15    1
    15    15    16    1
    16    16    17    1
    17    17    18    1
    18    18    19   ar
    19    19    20   ar
    20    20    21   ar
    21    21    22   ar
    22    18    22   ar
    23     1    23    1
    24     1    24    1
    25     1    25    1
    26     2    26    1
    27     2    27    1
    28     4    28    1
    29     4    29    1
    30     5    30    1
    31     5    31    1
    32     7    32    1
    33     7    33    1
    34     8    34    1
    35     8    35    1
    36    10    36    1
    37    10    37    1
    38    11    38    1
    39    11    39    1
    40    13    40    1
    41    13    41    1
    42    14    42    1
    43    14    43    1
    44    16    44    1
    45    16    45    1
    46    17    46    1
    47    17    47    1
    48    19    48    1
    49    20    49    1
