@<TRIPOS>MOLECULE
*****
 12 11 0 0 0
SMALL
GASTEIGER

@<TRIPOS>ATOM
      1 C           0.9376   -0.0693   -0.0362 C.3     1  UNL1       -0.0570
      2 C           2.4576   -0.0693   -0.0362 C.3     1  UNL1        0.0209
      3 C           2.9643   -0.3594    1.3672 C.2     1  UNL1        0.2102
      4 N           2.0091   -0.5855    2.4614 N.am    1  UNL1       -0.3293
      5 O           4.2138   -0.4064    1.5946 O.2     1  UNL1       -0.2760
      6 H           0.5810    0.1349   -1.0241 H       1  UNL1        0.0234
      7 H           0.5810    0.6842    0.6346 H       1  UNL1        0.0234
      8 H           0.5810   -1.0269    0.2809 H       1  UNL1        0.0234
      9 H           2.8143    0.8884   -0.3533 H       1  UNL1        0.0355
     10 H           2.8143   -0.8228   -0.7070 H       1  UNL1        0.0355
     11 H           1.0411   -0.5491    2.2852 H       1  UNL1        0.1449
     12 H           2.3372   -0.7734    3.3704 H       1  UNL1        0.1449
@<TRIPOS>BOND
     1     1     2    1
     2     2     3    1
     3     3     4   am
     4     3     5    2
     5     1     6    1
     6     1     7    1
     7     1     8    1
     8     2     9    1
     9     2    10    1
    10     4    11    1
    11     4    12    1
