@<TRIPOS>MOLECULE
*****
 48 47 0 0 0
SMALL
GASTEIGER

@<TRIPOS>ATOM
      1 O           1.0861   -0.0454   -0.0230 O.2     1  UNL1       -0.2795
      2 C           2.3570   -0.0454   -0.0230 C.2     1  UNL1        0.2000
      3 N           3.0920   -1.0662   -0.7837 N.am    1  UNL1       -0.3157
      4 C           4.5620   -1.0662   -0.7837 C.3     1  UNL1        0.0348
      5 C           5.0686   -2.2154   -1.6399 C.3     1  UNL1        0.0632
      6 O           6.4886   -2.2154   -1.6399 O.3     1  UNL1       -0.3760
      7 C           6.9620   -3.2889   -2.4398 C.3     1  UNL1        0.0711
      8 C           8.4820   -3.2889   -2.4398 C.3     1  UNL1        0.0711
      9 O           8.9553   -4.3625   -3.2397 O.3     1  UNL1       -0.3752
     10 C          10.3753   -4.3625   -3.2397 C.3     1  UNL1        0.0711
     11 C          10.8820   -5.5116   -4.0959 C.3     1  UNL1        0.0711
     12 O          12.3020   -5.5116   -4.0959 O.3     1  UNL1       -0.3752
     13 C          12.7753   -6.5852   -4.8958 C.3     1  UNL1        0.0711
     14 C          14.2953   -6.5852   -4.8958 C.3     1  UNL1        0.0711
     15 O          14.7686   -7.6587   -5.6957 O.3     1  UNL1       -0.3752
     16 C          16.1886   -7.6587   -5.6957 C.3     1  UNL1        0.0711
     17 C          16.6953   -8.8079   -6.5520 C.3     1  UNL1        0.0711
     18 O          18.1153   -8.8079   -6.5520 O.3     1  UNL1       -0.3752
     19 C          18.5886   -9.8814   -7.3519 C.3     1  UNL1        0.0708
     20 C          20.1086   -9.8814   -7.3519 C.3     1  UNL1        0.0676
     21 O          20.5819  -10.9550   -8.1518 O.3     1  UNL1       -0.3927
     22 H           2.8730    0.6713    0.5110 H       1  UNL1        0.1251
     23 H           2.5997   -1.7499   -1.2931 H       1  UNL1        0.1485
     24 H           4.9187   -1.1837    0.2183 H       1  UNL1        0.0484
     25 H           4.9187   -0.1398   -1.1829 H       1  UNL1        0.0484
     26 H           4.7120   -2.0979   -2.6418 H       1  UNL1        0.0575
     27 H           4.7120   -3.1418   -1.2407 H       1  UNL1        0.0575
     28 H           6.6053   -3.1714   -3.4417 H       1  UNL1        0.0583
     29 H           6.6053   -4.2154   -2.0406 H       1  UNL1        0.0583
     30 H           8.8386   -3.4064   -1.4379 H       1  UNL1        0.0583
     31 H           8.8386   -2.3625   -2.8390 H       1  UNL1        0.0583
     32 H          10.7320   -4.4800   -2.2378 H       1  UNL1        0.0583
     33 H          10.7320   -3.4360   -3.6389 H       1  UNL1        0.0583
     34 H          10.5253   -5.3941   -5.0979 H       1  UNL1        0.0583
     35 H          10.5253   -6.4381   -3.6967 H       1  UNL1        0.0583
     36 H          12.4186   -6.4677   -5.8978 H       1  UNL1        0.0583
     37 H          12.4186   -7.5116   -4.4966 H       1  UNL1        0.0583
     38 H          14.6520   -6.7027   -3.8939 H       1  UNL1        0.0583
     39 H          14.6520   -5.6587   -5.2950 H       1  UNL1        0.0583
     40 H          16.5453   -7.7763   -4.6938 H       1  UNL1        0.0583
     41 H          16.5453   -6.7323   -6.0949 H       1  UNL1        0.0583
     42 H          16.3386   -8.6904   -7.5539 H       1  UNL1        0.0583
     43 H          16.3386   -9.7344   -6.1528 H       1  UNL1        0.0583
     44 H          18.2319   -9.7639   -8.3538 H       1  UNL1        0.0583
     45 H          18.2319  -10.8079   -6.9527 H       1  UNL1        0.0583
     46 H          20.4653   -9.9990   -6.3499 H       1  UNL1        0.0580
     47 H          20.4653   -8.9550   -7.7511 H       1  UNL1        0.0580
     48 H          20.2586  -11.7949   -7.7899 H       1  UNL1        0.2095
@<TRIPOS>BOND
     1     1     2    2
     2     2     3   am
     3     3     4    1
     4     4     5    1
     5     5     6    1
     6     6     7    1
     7     7     8    1
     8     8     9    1
     9     9    10    1
    10    10    11    1
    11    11    12    1
    12    12    13    1
    13    13    14    1
    14    14    15    1
    15    15    16    1
    16    16    17    1
    17    17    18    1
    18    18    19    1
    19    19    20    1
    20    20    21    1
    21     2    22    1
    22     3    23    1
    23     4    24    1
    24     4    25    1
    25     5    26    1
    26     5    27    1
    27     7    28    1
    28     7    29    1
    29     8    30    1
    30     8    31    1
    31    10    32    1
    32    10    33    1
    33    11    34    1
    34    11    35    1
    35    13    36    1
    36    13    37    1
    37    14    38    1
    38    14    39    1
    39    16    40    1
    40    16    41    1
    41    17    42    1
    42    17    43    1
    43    19    44    1
    44    19    45    1
    45    20    46    1
    46    20    47    1
    47    21    48    1
