@<TRIPOS>MOLECULE
*****
 32 31 0 0 0
SMALL
GASTEIGER

@<TRIPOS>ATOM
      1 C           0.9106    0.0334    0.0298 C.3     1  UNL1       -0.0648
      2 C           2.4306    0.0334    0.0298 C.3     1  UNL1       -0.0476
      3 C           2.9373   -1.3939    0.1582 C.3     1  UNL1        0.0239
      4 C           4.4573   -1.3939    0.1582 C.2     1  UNL1        0.2153
      5 O           5.0927   -0.2977    0.0596 O.2     1  UNL1       -0.2756
      6 N           5.1923   -2.6618    0.2722 N.am    1  UNL1       -0.3033
      7 C           4.4573   -3.9298    0.3863 C.3     1  UNL1        0.0032
      8 C           6.6623   -2.6618    0.2722 C.3     1  UNL1        0.0271
      9 C           7.1689   -4.0891    0.4006 C.3     1  UNL1        0.0141
     10 N           8.6389   -4.0891    0.4006 N.3     1  UNL1       -0.3069
     11 C           9.1289   -3.2914    1.5340 C.3     1  UNL1       -0.0130
     12 C           9.1289   -5.4695    0.5248 C.3     1  UNL1       -0.0130
     13 H           0.5539    1.0382   -0.0606 H       1  UNL1        0.0230
     14 H           0.5539   -0.3907    0.9451 H       1  UNL1        0.0230
     15 H           0.5539   -0.5472   -0.7951 H       1  UNL1        0.0230
     16 H           2.7873    0.6141    0.8548 H       1  UNL1        0.0267
     17 H           2.7873    0.4575   -0.8855 H       1  UNL1        0.0267
     18 H           2.5806   -1.9745   -0.6668 H       1  UNL1        0.0358
     19 H           2.5806   -1.8180    1.0735 H       1  UNL1        0.0358
     20 H           3.4053   -3.7350    0.3688 H       1  UNL1        0.0428
     21 H           4.7157   -4.4103    1.3067 H       1  UNL1        0.0428
     22 H           4.7157   -4.5669   -0.4336 H       1  UNL1        0.0428
     23 H           7.0189   -2.0812    1.0972 H       1  UNL1        0.0477
     24 H           7.0189   -2.2377   -0.6431 H       1  UNL1        0.0477
     25 H           6.8122   -4.6698   -0.4243 H       1  UNL1        0.0442
     26 H           6.8122   -4.5132    1.3160 H       1  UNL1        0.0442
     27 H           8.7722   -2.2867    1.4436 H       1  UNL1        0.0391
     28 H          10.1989   -3.2914    1.5340 H       1  UNL1        0.0391
     29 H           8.7722   -3.7155    2.4493 H       1  UNL1        0.0391
     30 H           8.7722   -6.0501   -0.3002 H       1  UNL1        0.0391
     31 H           8.7722   -5.8936    1.4401 H       1  UNL1        0.0391
     32 H          10.1989   -5.4695    0.5248 H       1  UNL1        0.0391
@<TRIPOS>BOND
     1     1     2    1
     2     2     3    1
     3     3     4    1
     4     4     5    2
     5     4     6   am
     6     6     7    1
     7     6     8    1
     8     8     9    1
     9     9    10    1
    10    10    11    1
    11    10    12    1
    12     1    13    1
    13     1    14    1
    14     1    15    1
    15     2    16    1
    16     2    17    1
    17     3    18    1
    18     3    19    1
    19     7    20    1
    20     7    21    1
    21     7    22    1
    22     8    23    1
    23     8    24    1
    24     9    25    1
    25     9    26    1
    26    11    27    1
    27    11    28    1
    28    11    29    1
    29    12    30    1
    30    12    31    1
    31    12    32    1
