@<TRIPOS>MOLECULE
*****
 36 36 0 0 0
SMALL
GASTEIGER

@<TRIPOS>ATOM
      1 C           0.9624    0.0203    0.0904 C.3     1  UNL1       -0.0416
      2 C           2.4824    0.0203    0.0904 C.3     1  UNL1        0.0449
      3 O           2.9557   -1.3057    0.2749 O.3     1  UNL1       -0.3778
      4 C           4.3757   -1.3057    0.2749 C.3     1  UNL1        0.0710
      5 C           4.8823   -2.7251    0.4725 C.3     1  UNL1        0.0715
      6 O           6.3023   -2.7251    0.4725 O.3     1  UNL1       -0.3713
      7 C           6.7757   -4.0511    0.6570 C.3     1  UNL1        0.0930
      8 C           8.2957   -4.0511    0.6570 C.ar    1  UNL1        0.1083
      9 C           9.0158   -5.2865    0.8289 C.ar    1  UNL1        0.0509
     10 N          10.4086   -5.2865    0.8289 N.ar    1  UNL1       -0.2514
     11 C          11.1436   -4.0256    0.6534 C.3     1  UNL1        0.0436
     12 C          10.1559   -2.8813    0.4942 C.3     1  UNL1       -0.0269
     13 C          10.9159   -1.5775    0.3127 C.3     1  UNL1        0.0044
     14 C           9.9281   -0.4332    0.1535 C.2     1  UNL1        0.1204
     15 O          10.3517    0.7536   -0.0117 O.2     1  UNL1       -0.3010
     16 N          11.0813   -6.4405    0.9895 N.ar    1  UNL1       -0.0654
     17 N           8.9921   -2.8564    0.4907 N.ar    1  UNL1       -0.1322
     18 H           0.6057    1.0195   -0.0487 H       1  UNL1        0.0252
     19 H           0.6057   -0.3589    1.0252 H       1  UNL1        0.0252
     20 H           0.6057   -0.5997   -0.7054 H       1  UNL1        0.0252
     21 H           2.8390    0.6403    0.8862 H       1  UNL1        0.0557
     22 H           2.8390    0.3995   -0.8444 H       1  UNL1        0.0557
     23 H           4.7324   -0.6857    1.0707 H       1  UNL1        0.0583
     24 H           4.7324   -0.9265   -0.6599 H       1  UNL1        0.0583
     25 H           4.5257   -3.3451   -0.3233 H       1  UNL1        0.0583
     26 H           4.5257   -3.1043    1.4073 H       1  UNL1        0.0583
     27 H           6.4190   -4.6711   -0.1388 H       1  UNL1        0.0626
     28 H           6.4190   -4.4303    1.5918 H       1  UNL1        0.0626
     29 H           8.4998   -6.1717    0.9521 H       1  UNL1        0.0846
     30 H          11.7588   -4.0898   -0.2197 H       1  UNL1        0.0509
     31 H          11.7588   -3.8490    1.5109 H       1  UNL1        0.0509
     32 H           9.5407   -2.8170    1.3673 H       1  UNL1        0.0287
     33 H           9.5407   -3.0578   -0.3633 H       1  UNL1        0.0287
     34 H          11.5310   -1.6418   -0.5604 H       1  UNL1        0.0339
     35 H          11.5310   -1.4009    1.1702 H       1  UNL1        0.0339
     36 H           8.9135   -0.6200    0.1795 H       1  UNL1        0.1026
@<TRIPOS>BOND
     1     1     2    1
     2     2     3    1
     3     3     4    1
     4     4     5    1
     5     5     6    1
     6     6     7    1
     7     7     8    1
     8     8     9   ar
     9     9    10   ar
    10    10    11    1
    11    11    12    1
    12    12    13    1
    13    13    14    1
    14    14    15    2
    15    10    16   ar
    16    16    17   ar
    17     8    17   ar
    18     1    18    1
    19     1    19    1
    20     1    20    1
    21     2    21    1
    22     2    22    1
    23     4    23    1
    24     4    24    1
    25     5    25    1
    26     5    26    1
    27     7    27    1
    28     7    28    1
    29     9    29    1
    30    11    30    1
    31    11    31    1
    32    12    32    1
    33    12    33    1
    34    13    34    1
    35    13    35    1
    36    14    36    1
