@<TRIPOS>MOLECULE
*****
 38 37 0 0 0
SMALL
GASTEIGER

@<TRIPOS>ATOM
      1 O           0.9408    0.0047   -0.0804 O.3     1  UNL1       -0.3927
      2 C           2.3608    0.0047   -0.0804 C.3     1  UNL1        0.0676
      3 C           2.8674   -1.2599   -0.7546 C.3     1  UNL1        0.0708
      4 O           4.2874   -1.2599   -0.7546 O.3     1  UNL1       -0.3752
      5 C           4.7608   -2.4413   -1.3844 C.3     1  UNL1        0.0711
      6 C           6.2808   -2.4413   -1.3844 C.3     1  UNL1        0.0711
      7 O           6.7541   -3.6227   -2.0142 O.3     1  UNL1       -0.3752
      8 C           8.1741   -3.6227   -2.0142 C.3     1  UNL1        0.0711
      9 C           8.6807   -4.8873   -2.6884 C.3     1  UNL1        0.0711
     10 O          10.1007   -4.8873   -2.6884 O.3     1  UNL1       -0.3752
     11 C          10.5741   -6.0686   -3.3182 C.3     1  UNL1        0.0711
     12 C          12.0941   -6.0686   -3.3182 C.3     1  UNL1        0.0711
     13 O          12.5674   -7.2500   -3.9481 O.3     1  UNL1       -0.3752
     14 C          13.9874   -7.2500   -3.9481 C.3     1  UNL1        0.0708
     15 C          14.4941   -8.5146   -4.6222 C.3     1  UNL1        0.0676
     16 O          15.9141   -8.5146   -4.6222 O.3     1  UNL1       -0.3927
     17 H           0.6174    0.8117    0.3498 H       1  UNL1        0.2095
     18 H           2.7174    0.0388    0.9278 H       1  UNL1        0.0580
     19 H           2.7174    0.8608   -0.6141 H       1  UNL1        0.0580
     20 H           2.5108   -1.2940   -1.7628 H       1  UNL1        0.0583
     21 H           2.5108   -2.1160   -0.2210 H       1  UNL1        0.0583
     22 H           4.4041   -2.4754   -2.3927 H       1  UNL1        0.0583
     23 H           4.4041   -3.2974   -0.8508 H       1  UNL1        0.0583
     24 H           6.6374   -2.4072   -0.3762 H       1  UNL1        0.0583
     25 H           6.6374   -1.5852   -1.9181 H       1  UNL1        0.0583
     26 H           8.5307   -3.5886   -1.0060 H       1  UNL1        0.0583
     27 H           8.5308   -2.7666   -2.5479 H       1  UNL1        0.0583
     28 H           8.3241   -4.9214   -3.6966 H       1  UNL1        0.0583
     29 H           8.3241   -5.7434   -2.1548 H       1  UNL1        0.0583
     30 H          10.2174   -6.1027   -4.3265 H       1  UNL1        0.0583
     31 H          10.2174   -6.9247   -2.7846 H       1  UNL1        0.0583
     32 H          12.4507   -6.0345   -2.3100 H       1  UNL1        0.0583
     33 H          12.4507   -5.2125   -3.8519 H       1  UNL1        0.0583
     34 H          14.3441   -7.2159   -2.9398 H       1  UNL1        0.0583
     35 H          14.3441   -6.3939   -4.4817 H       1  UNL1        0.0583
     36 H          14.1374   -8.5487   -5.6305 H       1  UNL1        0.0580
     37 H          14.1374   -9.3707   -4.0886 H       1  UNL1        0.0580
     38 H          16.2374   -7.7385   -5.1060 H       1  UNL1        0.2095
@<TRIPOS>BOND
     1     1     2    1
     2     2     3    1
     3     3     4    1
     4     4     5    1
     5     5     6    1
     6     6     7    1
     7     7     8    1
     8     8     9    1
     9     9    10    1
    10    10    11    1
    11    11    12    1
    12    12    13    1
    13    13    14    1
    14    14    15    1
    15    15    16    1
    16     1    17    1
    17     2    18    1
    18     2    19    1
    19     3    20    1
    20     3    21    1
    21     5    22    1
    22     5    23    1
    23     6    24    1
    24     6    25    1
    25     8    26    1
    26     8    27    1
    27     9    28    1
    28     9    29    1
    29    11    30    1
    30    11    31    1
    31    12    32    1
    32    12    33    1
    33    14    34    1
    34    14    35    1
    35    15    36    1
    36    15    37    1
    37    16    38    1
