@<TRIPOS>MOLECULE
*****
 29 28 0 0 0
SMALL
GASTEIGER

@<TRIPOS>ATOM
      1 C           0.9136   -0.0364   -0.0347 C.3     1  UNL1       -0.0653
      2 C           2.4336   -0.0364   -0.0347 C.3     1  UNL1       -0.0559
      3 C           2.9402   -0.1475    1.3941 C.3     1  UNL1       -0.0533
      4 C           4.4602   -0.1475    1.3941 C.3     1  UNL1       -0.0531
      5 C           4.9669   -0.2586    2.8228 C.3     1  UNL1       -0.0531
      6 C           6.4869   -0.2586    2.8228 C.3     1  UNL1       -0.0531
      7 C           6.9935   -0.3697    4.2516 C.3     1  UNL1       -0.0533
      8 C           8.5135   -0.3697    4.2516 C.3     1  UNL1       -0.0559
      9 C           9.0202   -0.4807    5.6804 C.3     1  UNL1       -0.0653
     10 H           0.5569    0.0418   -1.0404 H       1  UNL1        0.0230
     11 H           0.5569    0.7955    0.5359 H       1  UNL1        0.0230
     12 H           0.5569   -0.9465    0.4005 H       1  UNL1        0.0230
     13 H           2.7902    0.8737   -0.4698 H       1  UNL1        0.0263
     14 H           2.7902   -0.8684   -0.6053 H       1  UNL1        0.0263
     15 H           2.5836   -1.0576    1.8293 H       1  UNL1        0.0265
     16 H           2.5836    0.6844    1.9647 H       1  UNL1        0.0265
     17 H           4.8169    0.7626    0.9589 H       1  UNL1        0.0265
     18 H           4.8169   -0.9794    0.8235 H       1  UNL1        0.0265
     19 H           4.6102   -1.1687    3.2580 H       1  UNL1        0.0265
     20 H           4.6102    0.5733    3.3935 H       1  UNL1        0.0265
     21 H           6.8436    0.6515    2.3877 H       1  UNL1        0.0265
     22 H           6.8436   -1.0905    2.2522 H       1  UNL1        0.0265
     23 H           6.6369   -1.2798    4.6868 H       1  UNL1        0.0265
     24 H           6.6369    0.4623    4.8222 H       1  UNL1        0.0265
     25 H           8.8702    0.5405    3.8164 H       1  UNL1        0.0263
     26 H           8.8702   -1.2016    3.6810 H       1  UNL1        0.0263
     27 H           8.6635    0.3512    6.2510 H       1  UNL1        0.0230
     28 H          10.0902   -0.4807    5.6804 H       1  UNL1        0.0230
     29 H           8.6635   -1.3909    6.1155 H       1  UNL1        0.0230
@<TRIPOS>BOND
     1     1     2    1
     2     2     3    1
     3     3     4    1
     4     4     5    1
     5     5     6    1
     6     6     7    1
     7     7     8    1
     8     8     9    1
     9     1    10    1
    10     1    11    1
    11     1    12    1
    12     2    13    1
    13     2    14    1
    14     3    15    1
    15     3    16    1
    16     4    17    1
    17     4    18    1
    18     5    19    1
    19     5    20    1
    20     6    21    1
    21     6    22    1
    22     7    23    1
    23     7    24    1
    24     8    25    1
    25     8    26    1
    26     9    27    1
    27     9    28    1
    28     9    29    1
