@<TRIPOS>MOLECULE
*****
 42 41 0 0 0
SMALL
GASTEIGER

@<TRIPOS>ATOM
      1 N           0.9789   -0.0616    0.0759 N.3     1  UNL1       -0.3279
      2 C           2.4489   -0.0616    0.0759 C.3     1  UNL1        0.0166
      3 C           2.9555    0.7170   -1.1272 C.3     1  UNL1        0.0600
      4 O           4.3755    0.7170   -1.1272 O.3     1  UNL1       -0.3763
      5 C           4.8489    1.4443   -2.2512 C.3     1  UNL1        0.0711
      6 C           6.3689    1.4443   -2.2512 C.3     1  UNL1        0.0711
      7 O           6.8422    2.1717   -3.3752 O.3     1  UNL1       -0.3752
      8 C           8.2622    2.1717   -3.3752 C.3     1  UNL1        0.0711
      9 C           8.7688    2.9503   -4.5783 C.3     1  UNL1        0.0711
     10 O          10.1888    2.9503   -4.5783 O.3     1  UNL1       -0.3752
     11 C          10.6622    3.6776   -5.7023 C.3     1  UNL1        0.0711
     12 C          12.1822    3.6776   -5.7023 C.3     1  UNL1        0.0711
     13 O          12.6555    4.4050   -6.8263 O.3     1  UNL1       -0.3760
     14 C          14.0755    4.4050   -6.8263 C.3     1  UNL1        0.0632
     15 C          14.5822    5.1835   -8.0294 C.3     1  UNL1        0.0348
     16 N          16.0522    5.1835   -8.0294 N.am    1  UNL1       -0.3157
     17 C          16.7872    5.8752   -9.0982 C.2     1  UNL1        0.2000
     18 O          18.0581    5.8752   -9.0982 O.2     1  UNL1       -0.2795
     19 H           0.6389   -0.5841    0.8832 H       1  UNL1        0.1183
     20 H           0.6389   -0.4996   -0.7803 H       1  UNL1        0.1183
     21 H           2.8055   -1.0691    0.0247 H       1  UNL1        0.0444
     22 H           2.8055    0.3978    0.9740 H       1  UNL1        0.0444
     23 H           2.5989    1.7245   -1.0761 H       1  UNL1        0.0572
     24 H           2.5989    0.2575   -2.0254 H       1  UNL1        0.0572
     25 H           4.4922    2.4518   -2.2000 H       1  UNL1        0.0583
     26 H           4.4922    0.9849   -3.1493 H       1  UNL1        0.0583
     27 H           6.7255    0.4368   -2.3024 H       1  UNL1        0.0583
     28 H           6.7255    1.9038   -1.3531 H       1  UNL1        0.0583
     29 H           8.6189    1.1642   -3.4264 H       1  UNL1        0.0583
     30 H           8.6189    2.6311   -2.4771 H       1  UNL1        0.0583
     31 H           8.4122    3.9578   -4.5271 H       1  UNL1        0.0583
     32 H           8.4122    2.4908   -5.4764 H       1  UNL1        0.0583
     33 H          10.3055    4.6851   -5.6511 H       1  UNL1        0.0583
     34 H          10.3055    3.2182   -6.6004 H       1  UNL1        0.0583
     35 H          12.5388    2.6701   -5.7535 H       1  UNL1        0.0583
     36 H          12.5388    4.1370   -4.8042 H       1  UNL1        0.0583
     37 H          14.4322    3.3974   -6.8774 H       1  UNL1        0.0575
     38 H          14.4322    4.8644   -5.9282 H       1  UNL1        0.0575
     39 H          14.2255    6.1910   -7.9782 H       1  UNL1        0.0484
     40 H          14.2255    4.7241   -8.9275 H       1  UNL1        0.0484
     41 H          16.5444    4.7203   -7.3136 H       1  UNL1        0.1485
     42 H          16.2712    6.3607   -9.8485 H       1  UNL1        0.1251
@<TRIPOS>BOND
     1     1     2    1
     2     2     3    1
     3     3     4    1
     4     4     5    1
     5     5     6    1
     6     6     7    1
     7     7     8    1
     8     8     9    1
     9     9    10    1
    10    10    11    1
    11    11    12    1
    12    12    13    1
    13    13    14    1
    14    14    15    1
    15    15    16    1
    16    16    17   am
    17    17    18    2
    18     1    19    1
    19     1    20    1
    20     2    21    1
    21     2    22    1
    22     3    23    1
    23     3    24    1
    24     5    25    1
    25     5    26    1
    26     6    27    1
    27     6    28    1
    28     8    29    1
    29     8    30    1
    30     9    31    1
    31     9    32    1
    32    11    33    1
    33    11    34    1
    34    12    35    1
    35    12    36    1
    36    14    37    1
    37    14    38    1
    38    15    39    1
    39    15    40    1
    40    16    41    1
    41    17    42    1
