@<TRIPOS>MOLECULE
*****
 24 23 0 0 0
SMALL
GASTEIGER

@<TRIPOS>ATOM
      1 C           1.0546    0.0678    0.0493 C.3     1  UNL1       -0.0639
      2 C           2.5746    0.0678    0.0493 C.3     1  UNL1       -0.0402
      3 C           3.0812   -0.8034    1.1871 C.3     1  UNL1        0.0113
      4 N           4.5512   -0.8034    1.1871 N.am    1  UNL1       -0.3153
      5 C           5.2862   -1.5774    2.1979 C.2     1  UNL1        0.2130
      6 O           4.6508   -2.2465    3.0718 O.2     1  UNL1       -0.2758
      7 C           6.8062   -1.5774    2.1979 C.3     1  UNL1        0.0237
      8 C           7.3129   -2.4486    3.3357 C.3     1  UNL1       -0.0476
      9 C           8.8329   -2.4486    3.3357 C.3     1  UNL1       -0.0648
     10 H           0.6979    0.6811   -0.7517 H       1  UNL1        0.0230
     11 H           0.6979    0.4548    0.9809 H       1  UNL1        0.0230
     12 H           0.6979   -0.9325   -0.0814 H       1  UNL1        0.0230
     13 H           2.9313    1.0681    0.1799 H       1  UNL1        0.0278
     14 H           2.9313   -0.3193   -0.8823 H       1  UNL1        0.0278
     15 H           2.7246   -1.8037    1.0565 H       1  UNL1        0.0462
     16 H           2.7246   -0.4164    2.1187 H       1  UNL1        0.0462
     17 H           5.0435   -0.2851    0.5102 H       1  UNL1        0.1487
     18 H           7.1629   -0.5771    2.3285 H       1  UNL1        0.0358
     19 H           7.1629   -1.9644    1.2663 H       1  UNL1        0.0358
     20 H           6.9562   -3.4489    3.2051 H       1  UNL1        0.0267
     21 H           6.9562   -2.0615    4.2674 H       1  UNL1        0.0267
     22 H           9.1896   -2.8356    2.4041 H       1  UNL1        0.0230
     23 H           9.1896   -3.0619    4.1367 H       1  UNL1        0.0230
     24 H           9.1896   -1.4483    3.4664 H       1  UNL1        0.0230
@<TRIPOS>BOND
     1     1     2    1
     2     2     3    1
     3     3     4    1
     4     4     5   am
     5     5     6    2
     6     5     7    1
     7     7     8    1
     8     8     9    1
     9     1    10    1
    10     1    11    1
    11     1    12    1
    12     2    13    1
    13     2    14    1
    14     3    15    1
    15     3    16    1
    16     4    17    1
    17     7    18    1
    18     7    19    1
    19     8    20    1
    20     8    21    1
    21     9    22    1
    22     9    23    1
    23     9    24    1
