@<TRIPOS>MOLECULE
*****
 23 22 0 0 0
SMALL
GASTEIGER

@<TRIPOS>ATOM
      1 C           1.0968   -0.0091   -0.0232 C.3     1  UNL1        0.0121
      2 C           2.6168   -0.0091   -0.0232 C.2     1  UNL1        0.2100
      3 O           3.2523    1.0488    0.2807 O.2     1  UNL1       -0.2761
      4 N           3.3518   -1.2326   -0.3749 N.am    1  UNL1       -0.3133
      5 C           4.8218   -1.2326   -0.3749 C.3     1  UNL1        0.0350
      6 C           5.3285   -2.6099   -0.7707 C.3     1  UNL1        0.0632
      7 O           6.7485   -2.6099   -0.7707 O.3     1  UNL1       -0.3760
      8 C           7.2218   -3.8966   -1.1404 C.3     1  UNL1        0.0708
      9 C           8.7418   -3.8966   -1.1404 C.3     1  UNL1        0.0676
     10 O           9.2152   -5.1834   -1.5102 O.3     1  UNL1       -0.3927
     11 H           0.7402    0.9605    0.2554 H       1  UNL1        0.0322
     12 H           0.7402   -0.7351    0.6771 H       1  UNL1        0.0322
     13 H           0.7402   -0.2525   -1.0022 H       1  UNL1        0.0322
     14 H           2.8596   -2.0520   -0.6103 H       1  UNL1        0.1488
     15 H           5.1785   -0.9891    0.6041 H       1  UNL1        0.0484
     16 H           5.1785   -0.5065   -1.0752 H       1  UNL1        0.0484
     17 H           4.9718   -2.8534   -1.7496 H       1  UNL1        0.0575
     18 H           4.9718   -3.3360   -0.0703 H       1  UNL1        0.0575
     19 H           6.8652   -4.1401   -2.1194 H       1  UNL1        0.0583
     20 H           6.8652   -4.6227   -0.4401 H       1  UNL1        0.0583
     21 H           9.0985   -3.6532   -0.1614 H       1  UNL1        0.0580
     22 H           9.0985   -3.1706   -1.8408 H       1  UNL1        0.0580
     23 H           8.8918   -5.8416   -0.8753 H       1  UNL1        0.2095
@<TRIPOS>BOND
     1     1     2    1
     2     2     3    2
     3     2     4   am
     4     4     5    1
     5     5     6    1
     6     6     7    1
     7     7     8    1
     8     8     9    1
     9     9    10    1
    10     1    11    1
    11     1    12    1
    12     1    13    1
    13     4    14    1
    14     5    15    1
    15     5    16    1
    16     6    17    1
    17     6    18    1
    18     8    19    1
    19     8    20    1
    20     9    21    1
    21     9    22    1
    22    10    23    1
