@<TRIPOS>MOLECULE
*****
 36 36 0 0 0
SMALL
GASTEIGER

@<TRIPOS>ATOM
      1 C           0.9030    0.0148    0.0194 C.1     1  UNL1       -0.1169
      2 C           2.2069    0.0148    0.0194 C.1     1  UNL1       -0.0773
      3 C           3.7269    0.0148    0.0194 C.3     1  UNL1        0.1080
      4 O           4.2002    1.1491    0.7306 O.3     1  UNL1       -0.3673
      5 C           5.6202    1.1491    0.7306 C.3     1  UNL1        0.0489
      6 C           6.1269    2.3632    1.4919 C.3     1  UNL1       -0.0278
      7 C           7.6469    2.3632    1.4919 C.3     1  UNL1       -0.0312
      8 C           8.1535    3.5774    2.2532 C.3     1  UNL1        0.0432
      9 N           9.6235    3.5774    2.2532 N.ar    1  UNL1       -0.2515
     10 C          10.3199    4.5993    2.8939 C.ar    1  UNL1        0.0486
     11 C          11.7601    4.5993    2.8939 C.ar    1  UNL1        0.0829
     12 C          12.5201    3.4840    2.1947 C.3     1  UNL1       -0.0051
     13 C          11.5324    2.5052    1.5809 C.3     1  UNL1       -0.0242
     14 C          12.2924    1.3900    0.8816 C.3     1  UNL1        0.0446
     15 O          11.3696    0.4755    0.3083 O.3     1  UNL1       -0.3950
     16 N          12.4566    5.6212    3.5347 N.ar    1  UNL1       -0.1345
     17 N          10.2963    2.5902    1.6342 N.ar    1  UNL1       -0.0655
     18 H          -0.0910    0.0148    0.0194 H       1  UNL1        0.1229
     19 H           4.0835    0.0516   -0.9887 H       1  UNL1        0.0697
     20 H           4.0835   -0.8766    0.4916 H       1  UNL1        0.0697
     21 H           5.9769    1.1858   -0.2775 H       1  UNL1        0.0560
     22 H           5.9769    0.2576    1.2028 H       1  UNL1        0.0560
     23 H           5.7702    2.3264    2.5000 H       1  UNL1        0.0288
     24 H           5.7702    3.2547    1.0197 H       1  UNL1        0.0288
     25 H           8.0035    2.4000    0.4837 H       1  UNL1        0.0284
     26 H           8.0035    1.4718    1.9641 H       1  UNL1        0.0284
     27 H           7.7969    3.5406    3.2613 H       1  UNL1        0.0509
     28 H           7.7969    4.4688    1.7809 H       1  UNL1        0.0509
     29 H           9.8039    5.3565    3.3687 H       1  UNL1        0.0845
     30 H          13.1353    2.9719    2.9047 H       1  UNL1        0.0330
     31 H          13.1353    3.9001    1.4244 H       1  UNL1        0.0330
     32 H          10.9172    3.0174    0.8709 H       1  UNL1        0.0291
     33 H          10.9172    2.0891    2.3512 H       1  UNL1        0.0291
     34 H          12.9076    0.8778    1.5917 H       1  UNL1        0.0557
     35 H          12.9076    1.8060    0.1113 H       1  UNL1        0.0557
     36 H          10.8120    0.0983    1.0066 H       1  UNL1        0.2094
@<TRIPOS>BOND
     1     1     2    3
     2     2     3    1
     3     3     4    1
     4     4     5    1
     5     5     6    1
     6     6     7    1
     7     7     8    1
     8     8     9    1
     9     9    10   ar
    10    10    11   ar
    11    11    12    1
    12    12    13    1
    13    13    14    1
    14    14    15    1
    15    11    16   ar
    16    16    17   ar
    17     9    17   ar
    18     1    18    1
    19     3    19    1
    20     3    20    1
    21     5    21    1
    22     5    22    1
    23     6    23    1
    24     6    24    1
    25     7    25    1
    26     7    26    1
    27     8    27    1
    28     8    28    1
    29    10    29    1
    30    12    30    1
    31    12    31    1
    32    13    32    1
    33    13    33    1
    34    14    34    1
    35    14    35    1
    36    15    36    1
