@<TRIPOS>MOLECULE
*****
 20 20 0 0 0
SMALL
GASTEIGER

@<TRIPOS>ATOM
      1 O           0.9817   -0.0353   -0.0918 O.2     1  UNL1       -0.2986
      2 C           2.2526   -0.0353   -0.0918 C.2     1  UNL1        0.1458
      3 C           3.0126   -1.2057    0.5108 C.3     1  UNL1        0.1027
      4 O           4.4087   -0.9749    0.3920 O.3     1  UNL1       -0.3708
      5 C           5.1187   -2.0683    0.9549 C.3     1  UNL1        0.0678
      6 C           6.6131   -1.8214    0.8278 C.3     1  UNL1        0.0665
      7 N           7.3481   -2.9532    1.4105 N.ar    1  UNL1       -0.2495
      8 C           8.7409   -2.9532    1.4105 C.ar    1  UNL1        0.0455
      9 C           9.4610   -4.0621    1.9814 C.ar    1  UNL1        0.0693
     10 N          10.8539   -4.0621    1.9814 N.ar    1  UNL1       -0.1380
     11 N           6.6754   -3.9892    1.9438 N.ar    1  UNL1       -0.0657
     12 H           2.7686    0.7593   -0.5009 H       1  UNL1        0.1051
     13 H           2.7541   -2.1044   -0.0092 H       1  UNL1        0.0636
     14 H           2.7541   -1.3046    1.5444 H       1  UNL1        0.0636
     15 H           4.8602   -2.9671    0.4350 H       1  UNL1        0.0578
     16 H           4.8602   -2.1673    1.9885 H       1  UNL1        0.0578
     17 H           6.8716   -0.9226    1.3477 H       1  UNL1        0.0532
     18 H           6.8716   -1.7224   -0.2058 H       1  UNL1        0.0532
     19 H           9.2569   -2.1586    1.0014 H       1  UNL1        0.0842
     20 H           8.9450   -4.8568    2.3905 H       1  UNL1        0.0864
@<TRIPOS>BOND
     1     1     2    2
     2     2     3    1
     3     3     4    1
     4     4     5    1
     5     5     6    1
     6     6     7    1
     7     7     8   ar
     8     8     9   ar
     9     9    10   ar
    10    10    11   ar
    11     7    11   ar
    12     2    12    1
    13     3    13    1
    14     3    14    1
    15     5    15    1
    16     5    16    1
    17     6    17    1
    18     6    18    1
    19     8    19    1
    20     9    20    1
