@<TRIPOS>MOLECULE
*****
 38 39 0 0 0
SMALL
GASTEIGER

@<TRIPOS>ATOM
      1 O           1.0069    0.0489   -0.0869 O.2     1  UNL1       -0.2793
      2 C           2.2778    0.0489   -0.0869 C.2     1  UNL1        0.2025
      3 N           3.0128    0.8065    0.9362 N.am    1  UNL1       -0.3040
      4 C           4.4828    0.8065    0.9362 C.3     1  UNL1        0.0147
      5 C           4.9895    1.6592    2.0880 C.3     1  UNL1       -0.0331
      6 C           6.5095    1.6592    2.0880 C.3     1  UNL1       -0.0254
      7 C           7.0162    2.2303    0.7736 C.3     1  UNL1        0.0018
      8 N           6.5262    1.4056   -0.3403 N.3     1  UNL1       -0.3019
      9 C           7.0162    1.9579   -1.6114 C.3     1  UNL1        0.0012
     10 C           6.5095    1.1051   -2.7631 C.3     1  UNL1       -0.0140
     11 C           7.0162    1.6762   -4.0775 C.3     1  UNL1        0.0576
     12 O           8.4362    1.6762   -4.0775 O.3     1  UNL1       -0.3917
     13 C           6.5095    0.8234   -5.2292 C.3     1  UNL1       -0.0140
     14 C           5.0562    1.4056   -0.3403 C.3     1  UNL1        0.0012
     15 C           7.0162    2.5120    3.2397 C.3     1  UNL1       -0.0331
     16 C           2.2778    1.5640    1.9594 C.3     1  UNL1        0.0147
     17 H           2.7938   -0.4829   -0.8052 H       1  UNL1        0.1253
     18 H           4.8395    1.2085    0.0110 H       1  UNL1        0.0464
     19 H           4.8395   -0.1958    1.0507 H       1  UNL1        0.0464
     20 H           4.6328    1.2572    3.0132 H       1  UNL1        0.0283
     21 H           4.6328    2.6615    1.9735 H       1  UNL1        0.0283
     22 H           6.8662    0.6569    2.2024 H       1  UNL1        0.0314
     23 H           8.0862    2.2303    0.7736 H       1  UNL1        0.0429
     24 H           6.6595    3.2326    0.6591 H       1  UNL1        0.0429
     25 H           8.0862    1.9579   -1.6114 H       1  UNL1        0.0427
     26 H           6.6595    2.9602   -1.7259 H       1  UNL1        0.0427
     27 H           5.4395    1.1051   -2.7631 H       1  UNL1        0.0302
     28 H           6.8662    0.1028   -2.6487 H       1  UNL1        0.0302
     29 H           6.6595    2.6785   -4.1920 H       1  UNL1        0.0594
     30 H           8.7595    0.7676   -3.9737 H       1  UNL1        0.2098
     31 H           7.0345   -0.0460   -5.5661 H       1  UNL1        0.0302
     32 H           6.1244    0.9218   -6.2227 H       1  UNL1        0.0302
     33 H           4.5614    0.5818    0.1303 H       1  UNL1        0.0427
     34 H           4.3859    2.1270    0.0784 H       1  UNL1        0.0427
     35 H           7.4564    3.4720    3.0682 H       1  UNL1        0.0283
     36 H           7.6499    2.4052    4.0952 H       1  UNL1        0.0283
     37 H           1.7000    2.3961    1.6151 H       1  UNL1        0.0464
     38 H           1.5120    1.1827    2.6019 H       1  UNL1        0.0464
@<TRIPOS>BOND
     1     1     2    2
     2     2     3   am
     3     3     4    1
     4     4     5    1
     5     5     6    1
     6     6     7    1
     7     7     8    1
     8     8     9    1
     9     9    10    1
    10    10    11    1
    11    11    12    1
    12    11    13    1
    13    13    14    1
    14     8    14    1
    15     6    15    1
    16    15    16    1
    17     3    16    1
    18     2    17    1
    19     4    18    1
    20     4    19    1
    21     5    20    1
    22     5    21    1
    23     6    22    1
    24     7    23    1
    25     7    24    1
    26     9    25    1
    27     9    26    1
    28    10    27    1
    29    10    28    1
    30    11    29    1
    31    12    30    1
    32    13    31    1
    33    13    32    1
    34    14    33    1
    35    14    34    1
    36    15    35    1
    37    15    36    1
    38    16    37    1
    39    16    38    1
