@<TRIPOS>MOLECULE
*****
 48 48 0 0 0
SMALL
GASTEIGER

@<TRIPOS>ATOM
      1 N           1.0564    0.0460    0.0686 N.3     1  UNL1       -0.3283
      2 C           2.5264    0.0460    0.0686 C.3     1  UNL1        0.0128
      3 C           3.0330    1.1595   -0.8334 C.3     1  UNL1        0.0554
      4 N           4.5030    1.1595   -0.8334 N.ar    1  UNL1       -0.2502
      5 C           5.1994    2.0968   -1.5926 C.ar    1  UNL1        0.0510
      6 C           6.6396    2.0968   -1.5926 C.ar    1  UNL1        0.1083
      7 C           7.3996    1.0740   -0.7641 C.3     1  UNL1        0.0930
      8 O           6.4769    0.2353   -0.0847 O.3     1  UNL1       -0.3713
      9 C           7.1869   -0.7203    0.6893 C.3     1  UNL1        0.0715
     10 C           6.1991   -1.6180    1.4165 C.3     1  UNL1        0.0711
     11 O           6.9091   -2.5736    2.1906 O.3     1  UNL1       -0.3752
     12 C           5.9864   -3.4123    2.8700 C.3     1  UNL1        0.0711
     13 C           6.7464   -4.4352    3.6985 C.3     1  UNL1        0.0711
     14 O           5.8236   -5.2738    4.3779 O.3     1  UNL1       -0.3752
     15 C           6.5336   -6.2294    5.1519 C.3     1  UNL1        0.0711
     16 C           5.5458   -7.1272    5.8791 C.3     1  UNL1        0.0711
     17 O           6.2558   -8.0828    6.6532 O.3     1  UNL1       -0.3752
     18 C           5.3331   -8.9214    7.3326 C.3     1  UNL1        0.0708
     19 C           6.0931   -9.9443    8.1611 C.3     1  UNL1        0.0676
     20 O           5.1703  -10.7830    8.8405 O.3     1  UNL1       -0.3927
     21 N           7.3360    3.0341   -2.3519 N.ar    1  UNL1       -0.1322
     22 N           5.1757    0.2541   -0.1000 N.ar    1  UNL1       -0.0653
     23 H           0.7164   -0.7013    0.6739 H       1  UNL1        0.1183
     24 H           0.7164   -0.1046   -0.8812 H       1  UNL1        0.1183
     25 H           2.8830   -0.8959   -0.2927 H       1  UNL1        0.0440
     26 H           2.8830    0.2039    1.0650 H       1  UNL1        0.0440
     27 H           2.6763    2.1014   -0.4720 H       1  UNL1        0.0522
     28 H           2.6763    1.0016   -1.8298 H       1  UNL1        0.0522
     29 H           4.6834    2.7913   -2.1552 H       1  UNL1        0.0846
     30 H           8.0148    1.5798   -0.0495 H       1  UNL1        0.0626
     31 H           8.0148    0.4800   -1.4073 H       1  UNL1        0.0626
     32 H           7.8020   -0.2144    1.4039 H       1  UNL1        0.0583
     33 H           7.8020   -1.3142    0.0461 H       1  UNL1        0.0583
     34 H           5.5840   -2.1239    0.7020 H       1  UNL1        0.0583
     35 H           5.5840   -1.0241    2.0597 H       1  UNL1        0.0583
     36 H           5.3712   -3.9182    2.1554 H       1  UNL1        0.0583
     37 H           5.3712   -2.8183    3.5131 H       1  UNL1        0.0583
     38 H           7.3615   -3.9293    4.4131 H       1  UNL1        0.0583
     39 H           7.3615   -5.0291    3.0553 H       1  UNL1        0.0583
     40 H           7.1488   -5.7236    5.8665 H       1  UNL1        0.0583
     41 H           7.1488   -6.8234    4.5087 H       1  UNL1        0.0583
     42 H           4.9307   -7.6330    5.1646 H       1  UNL1        0.0583
     43 H           4.9307   -6.5332    6.5223 H       1  UNL1        0.0583
     44 H           4.7179   -9.4273    6.6180 H       1  UNL1        0.0583
     45 H           4.7179   -8.3275    7.9757 H       1  UNL1        0.0583
     46 H           6.7082   -9.4384    8.8757 H       1  UNL1        0.0580
     47 H           6.7082  -10.5383    7.5179 H       1  UNL1        0.0580
     48 H           4.6127  -10.2445    9.4236 H       1  UNL1        0.2095
@<TRIPOS>BOND
     1     1     2    1
     2     2     3    1
     3     3     4    1
     4     4     5   ar
     5     5     6   ar
     6     6     7    1
     7     7     8    1
     8     8     9    1
     9     9    10    1
    10    10    11    1
    11    11    12    1
    12    12    13    1
    13    13    14    1
    14    14    15    1
    15    15    16    1
    16    16    17    1
    17    17    18    1
    18    18    19    1
    19    19    20    1
    20     6    21   ar
    21    21    22   ar
    22     4    22   ar
    23     1    23    1
    24     1    24    1
    25     2    25    1
    26     2    26    1
    27     3    27    1
    28     3    28    1
    29     5    29    1
    30     7    30    1
    31     7    31    1
    32     9    32    1
    33     9    33    1
    34    10    34    1
    35    10    35    1
    36    12    36    1
    37    12    37    1
    38    13    38    1
    39    13    39    1
    40    15    40    1
    41    15    41    1
    42    16    42    1
    43    16    43    1
    44    18    44    1
    45    18    45    1
    46    19    46    1
    47    19    47    1
    48    20    48    1
