@<TRIPOS>MOLECULE
*****
 34 35 0 0 0
SMALL
GASTEIGER

@<TRIPOS>ATOM
      1 C           1.0814    0.0566    0.0128 C.3     1  UNL1       -0.0038
      2 C           2.6014    0.0566    0.0128 C.3     1  UNL1       -0.0364
      3 C           3.1081   -0.8509    1.1219 C.3     1  UNL1       -0.0260
      4 C           2.6014   -2.2652    0.8905 C.3     1  UNL1        0.0019
      5 N           1.1314   -2.2652    0.8905 N.3     1  UNL1       -0.2997
      6 C           0.6414   -3.6329    0.6667 C.3     1  UNL1        0.0115
      7 C          -0.8786   -3.6329    0.6667 C.3     1  UNL1        0.0087
      8 N          -1.3686   -5.0007    0.4429 N.3     1  UNL1       -0.3136
      9 C          -2.8386   -5.0007    0.4429 C.3     1  UNL1        0.0087
     10 C           0.6414   -1.3875   -0.1821 C.3     1  UNL1        0.0115
     11 C           4.6281   -0.8509    1.1219 C.3     1  UNL1       -0.0364
     12 C           5.1348   -1.7585    2.2310 C.3     1  UNL1       -0.0038
     13 N           0.5914    0.9343   -1.0598 N.3     1  UNL1       -0.3160
     14 H           0.7248    0.4133    0.9565 H       1  UNL1        0.0424
     15 H           0.7248   -0.9390   -0.1501 H       1  UNL1        0.0424
     16 H           2.9581    1.0522    0.1757 H       1  UNL1        0.0281
     17 H           2.9581   -0.3001   -0.9308 H       1  UNL1        0.0281
     18 H           2.7514   -0.4943    2.0655 H       1  UNL1        0.0314
     19 H           2.9581   -2.9041    1.6712 H       1  UNL1        0.0429
     20 H           2.9581   -2.6219   -0.0532 H       1  UNL1        0.0429
     21 H           0.9981   -4.2718    1.4474 H       1  UNL1        0.0439
     22 H           0.9981   -3.9896   -0.2770 H       1  UNL1        0.0439
     23 H          -1.2352   -2.9941   -0.1141 H       1  UNL1        0.0437
     24 H          -1.2352   -3.2762    1.6103 H       1  UNL1        0.0437
     25 H          -1.0286   -5.6097    1.1871 H       1  UNL1        0.1220
     26 H          -3.4062   -5.0920    1.3453 H       1  UNL1        0.0437
     27 H          -3.6637   -5.4491   -0.0700 H       1  UNL1        0.0437
     28 H           0.3698   -0.3867    0.0816 H       1  UNL1        0.0439
     29 H           1.1380   -1.0805   -1.0788 H       1  UNL1        0.0439
     30 H           4.9848    0.1446    1.2848 H       1  UNL1        0.0281
     31 H           4.9848   -1.2076    0.1783 H       1  UNL1        0.0281
     32 H           5.4729   -1.4098    3.1844 H       1  UNL1        0.0424
     33 H           5.6374   -2.6702    2.4781 H       1  UNL1        0.0424
     34 H           0.2691    0.6019   -1.9686 H       1  UNL1        0.1219
@<TRIPOS>BOND
     1     1     2    1
     2     2     3    1
     3     3     4    1
     4     4     5    1
     5     5     6    1
     6     6     7    1
     7     7     8    1
     8     8     9    1
     9     9    10    1
    10     5    10    1
    11     3    11    1
    12    11    12    1
    13    12    13    1
    14     1    13    1
    15     1    14    1
    16     1    15    1
    17     2    16    1
    18     2    17    1
    19     3    18    1
    20     4    19    1
    21     4    20    1
    22     6    21    1
    23     6    22    1
    24     7    23    1
    25     7    24    1
    26     8    25    1
    27     9    26    1
    28     9    27    1
    29    10    28    1
    30    10    29    1
    31    11    30    1
    32    11    31    1
    33    12    32    1
    34    12    33    1
    35    13    34    1
