@<TRIPOS>MOLECULE
*****
 29 28 0 0 0
SMALL
GASTEIGER

@<TRIPOS>ATOM
      1 C           1.0401    0.0916   -0.0019 C.3     1  UNL1        0.0365
      2 O           2.4601    0.0916   -0.0019 O.3     1  UNL1       -0.3807
      3 C           2.9334   -1.1623    0.4673 C.3     1  UNL1        0.0706
      4 C           4.4534   -1.1623    0.4673 C.3     1  UNL1        0.0710
      5 O           4.9267   -2.4162    0.9364 O.3     1  UNL1       -0.3775
      6 C           6.3467   -2.4162    0.9364 C.3     1  UNL1        0.0478
      7 C           6.8534   -3.7584    1.4386 C.3     1  UNL1       -0.0294
      8 C           8.3734   -3.7584    1.4386 C.3     1  UNL1       -0.0489
      9 C           8.8801   -5.1006    1.9408 C.3     1  UNL1       -0.0296
     10 C          10.4001   -5.1006    1.9408 C.3     1  UNL1        0.0442
     11 O          10.8734   -6.3545    2.4100 O.3     1  UNL1       -0.3950
     12 H           0.6834    1.0364   -0.3554 H       1  UNL1        0.0524
     13 H           0.6834   -0.0747    0.9932 H       1  UNL1        0.0524
     14 H           0.6834   -0.6870   -0.6434 H       1  UNL1        0.0524
     15 H           2.5768   -1.9409   -0.1742 H       1  UNL1        0.0582
     16 H           2.5767   -1.3286    1.4623 H       1  UNL1        0.0582
     17 H           4.8101   -0.3837    1.1088 H       1  UNL1        0.0583
     18 H           4.8101   -0.9960   -0.5277 H       1  UNL1        0.0583
     19 H           6.7034   -1.6376    1.5779 H       1  UNL1        0.0560
     20 H           6.7034   -2.2499   -0.0586 H       1  UNL1        0.0560
     21 H           6.4967   -4.5370    0.7971 H       1  UNL1        0.0287
     22 H           6.4967   -3.9247    2.4336 H       1  UNL1        0.0287
     23 H           8.7301   -2.9798    2.0801 H       1  UNL1        0.0267
     24 H           8.7301   -3.5921    0.4436 H       1  UNL1        0.0267
     25 H           8.5234   -5.8792    1.2993 H       1  UNL1        0.0287
     26 H           8.5234   -5.2669    2.9358 H       1  UNL1        0.0287
     27 H          10.7567   -4.3220    2.5823 H       1  UNL1        0.0557
     28 H          10.7567   -4.9343    0.9458 H       1  UNL1        0.0557
     29 H          10.5501   -6.5052    3.3120 H       1  UNL1        0.2094
@<TRIPOS>BOND
     1     1     2    1
     2     2     3    1
     3     3     4    1
     4     4     5    1
     5     5     6    1
     6     6     7    1
     7     7     8    1
     8     8     9    1
     9     9    10    1
    10    10    11    1
    11     1    12    1
    12     1    13    1
    13     1    14    1
    14     3    15    1
    15     3    16    1
    16     4    17    1
    17     4    18    1
    18     6    19    1
    19     6    20    1
    20     7    21    1
    21     7    22    1
    22     8    23    1
    23     8    24    1
    24     9    25    1
    25     9    26    1
    26    10    27    1
    27    10    28    1
    28    11    29    1
