@<TRIPOS>MOLECULE
*****
 9 8 0 0 0
SMALL
GASTEIGER

@<TRIPOS>ATOM
      1 C           0.9571   -0.0833   -0.0350 C.3     1  UNL1        0.0119
      2 C           2.4771   -0.0833   -0.0350 C.2     1  UNL1        0.2074
      3 N           3.2121   -0.1826    1.2342 N.am    1  UNL1       -0.3295
      4 O           3.1126    0.0026   -1.1323 O.2     1  UNL1       -0.2763
      5 H           0.6005   -0.1619    0.9707 H       1  UNL1        0.0322
      6 H           0.6004   -0.9149   -0.6060 H       1  UNL1        0.0322
      7 H           0.6004    0.8271   -0.4698 H       1  UNL1        0.0322
      8 H           2.7199   -0.2490    2.0842 H       1  UNL1        0.1449
      9 H           4.1966   -0.1826    1.2342 H       1  UNL1        0.1449
@<TRIPOS>BOND
     1     1     2    1
     2     2     3   am
     3     2     4    2
     4     1     5    1
     5     1     6    1
     6     1     7    1
     7     3     8    1
     8     3     9    1
