@<TRIPOS>MOLECULE
*****
 31 32 0 0 0
SMALL
GASTEIGER

@<TRIPOS>ATOM
      1 C           1.0706    0.0371   -0.0604 C.3     1  UNL1       -0.0027
      2 C           2.5906    0.0371   -0.0604 C.3     1  UNL1       -0.0247
      3 C           3.0972    1.0569   -1.0672 C.3     1  UNL1        0.0128
      4 N           2.6072    2.3933   -0.7000 N.3     1  UNL1       -0.2969
      5 C           1.1372    2.3933   -0.7000 C.3     1  UNL1        0.0118
      6 C           0.6306    3.7751   -0.3202 C.3     1  UNL1        0.0087
      7 N          -0.8394    3.7751   -0.3202 N.3     1  UNL1       -0.3136
      8 C          -1.3294    5.1115    0.0470 C.3     1  UNL1        0.0087
      9 C           3.0972    3.3795   -1.6737 C.3     1  UNL1        0.0118
     10 C           4.6172    1.0569   -1.0672 C.3     1  UNL1       -0.0247
     11 C           5.1239    2.0767   -2.0741 C.3     1  UNL1       -0.0027
     12 N           0.5806   -0.9491    0.9134 N.3     1  UNL1       -0.3159
     13 H           0.7139   -0.2178   -1.0364 H       1  UNL1        0.0424
     14 H           0.7139    1.0099    0.2069 H       1  UNL1        0.0424
     15 H           2.9472   -0.9356   -0.3277 H       1  UNL1        0.0293
     16 H           2.9472    0.2920    0.9157 H       1  UNL1        0.0293
     17 H           2.7406    0.8020   -2.0433 H       1  UNL1        0.0463
     18 H           0.7806    1.6754    0.0088 H       1  UNL1        0.0439
     19 H           0.7806    2.1384   -1.6760 H       1  UNL1        0.0439
     20 H           0.9872    4.4930   -1.0290 H       1  UNL1        0.0437
     21 H           0.9872    4.0300    0.6558 H       1  UNL1        0.0437
     22 H          -1.1794    3.0908    0.3554 H       1  UNL1        0.1220
     23 H          -1.4663    5.4055    1.0667 H       1  UNL1        0.0437
     24 H          -2.0998    5.8076   -0.2115 H       1  UNL1        0.0437
     25 H           3.9780    3.9315   -1.4197 H       1  UNL1        0.0439
     26 H           3.4118    3.2266   -2.6849 H       1  UNL1        0.0439
     27 H           4.9739    0.0841   -1.3345 H       1  UNL1        0.0293
     28 H           4.9739    1.3118   -0.0911 H       1  UNL1        0.0293
     29 H           5.4620    1.8308   -3.0590 H       1  UNL1        0.0424
     30 H           5.6265    3.0094   -2.2233 H       1  UNL1        0.0424
     31 H           0.2582   -0.7147    1.8523 H       1  UNL1        0.1219
@<TRIPOS>BOND
     1     1     2    1
     2     2     3    1
     3     3     4    1
     4     4     5    1
     5     5     6    1
     6     6     7    1
     7     7     8    1
     8     8     9    1
     9     4     9    1
    10     3    10    1
    11    10    11    1
    12    11    12    1
    13     1    12    1
    14     1    13    1
    15     1    14    1
    16     2    15    1
    17     2    16    1
    18     3    17    1
    19     5    18    1
    20     5    19    1
    21     6    20    1
    22     6    21    1
    23     7    22    1
    24     8    23    1
    25     8    24    1
    26     9    25    1
    27     9    26    1
    28    10    27    1
    29    10    28    1
    30    11    29    1
    31    11    30    1
    32    12    31    1
