@<TRIPOS>MOLECULE
*****
 37 38 0 0 0
SMALL
GASTEIGER

@<TRIPOS>ATOM
      1 C           0.9305    0.0718   -0.0027 C.3     1  UNL1       -0.0039
      2 C           2.4505    0.0718   -0.0027 C.3     1  UNL1       -0.0375
      3 C           2.9571   -1.0899    0.8364 C.3     1  UNL1       -0.0376
      4 C           2.4505   -2.3974    0.2499 C.3     1  UNL1       -0.0373
      5 C           0.9305   -2.3974    0.2499 C.3     1  UNL1       -0.0008
      6 N           0.4405   -3.6620   -0.3173 N.3     1  UNL1       -0.2999
      7 C          -1.0295   -3.6620   -0.3173 C.3     1  UNL1        0.0115
      8 C          -1.5362   -4.9695   -0.9038 C.3     1  UNL1        0.0087
      9 N          -3.0062   -4.9695   -0.9038 N.3     1  UNL1       -0.3136
     10 C          -3.4962   -6.2340   -1.4710 C.3     1  UNL1        0.0087
     11 C           0.9305   -4.7855    0.4942 C.3     1  UNL1        0.0115
     12 C           4.4771   -1.0899    0.8364 C.3     1  UNL1       -0.0375
     13 C           4.9838   -2.2516    1.6755 C.3     1  UNL1       -0.0039
     14 N           0.4405    1.1953   -0.8142 N.3     1  UNL1       -0.3160
     15 H           0.5738    0.1745    1.0009 H       1  UNL1        0.0424
     16 H           0.5738   -0.8486   -0.4156 H       1  UNL1        0.0424
     17 H           2.8071    0.9923    0.4102 H       1  UNL1        0.0280
     18 H           2.8071   -0.0308   -1.0062 H       1  UNL1        0.0280
     19 H           2.6005   -0.9872    1.8400 H       1  UNL1        0.0302
     20 H           2.8071   -3.2152    0.8406 H       1  UNL1        0.0280
     21 H           2.8071   -2.5001   -0.7537 H       1  UNL1        0.0280
     22 H           0.5738   -1.5797   -0.3408 H       1  UNL1        0.0427
     23 H           0.5738   -2.2948    1.2535 H       1  UNL1        0.0427
     24 H          -1.3862   -2.8442   -0.9080 H       1  UNL1        0.0439
     25 H          -1.3862   -3.5593    0.6863 H       1  UNL1        0.0439
     26 H          -1.1795   -5.7873   -0.3131 H       1  UNL1        0.0437
     27 H          -1.1795   -5.0722   -1.9074 H       1  UNL1        0.0437
     28 H          -3.3462   -4.1899   -1.4669 H       1  UNL1        0.1220
     29 H          -3.6330   -6.3687   -2.5237 H       1  UNL1        0.0437
     30 H          -4.2666   -6.9615   -1.3220 H       1  UNL1        0.0437
     31 H           1.8112   -5.2921    0.1588 H       1  UNL1        0.0439
     32 H           1.2451   -4.7889    1.5169 H       1  UNL1        0.0439
     33 H           4.8338   -0.1695    1.2493 H       1  UNL1        0.0280
     34 H           4.8338   -1.1926   -0.1671 H       1  UNL1        0.0280
     35 H           5.3219   -2.1592    2.6865 H       1  UNL1        0.0424
     36 H           5.4864   -3.1962    1.6805 H       1  UNL1        0.0424
     37 H           0.1182    1.1072   -1.7779 H       1  UNL1        0.1219
@<TRIPOS>BOND
     1     1     2    1
     2     2     3    1
     3     3     4    1
     4     4     5    1
     5     5     6    1
     6     6     7    1
     7     7     8    1
     8     8     9    1
     9     9    10    1
    10    10    11    1
    11     6    11    1
    12     3    12    1
    13    12    13    1
    14    13    14    1
    15     1    14    1
    16     1    15    1
    17     1    16    1
    18     2    17    1
    19     2    18    1
    20     3    19    1
    21     4    20    1
    22     4    21    1
    23     5    22    1
    24     5    23    1
    25     7    24    1
    26     7    25    1
    27     8    26    1
    28     8    27    1
    29     9    28    1
    30    10    29    1
    31    10    30    1
    32    11    31    1
    33    11    32    1
    34    12    33    1
    35    12    34    1
    36    13    35    1
    37    13    36    1
    38    14    37    1
