@<TRIPOS>MOLECULE
*****
 27 27 0 0 0
SMALL
GASTEIGER

@<TRIPOS>ATOM
      1 C           1.0431    0.0825   -0.0365 C.3     1  UNL1       -0.0454
      2 C           2.5631    0.0825   -0.0365 C.3     1  UNL1        0.0404
      3 N           3.0531   -1.1305    0.6338 N.ar    1  UNL1       -0.2517
      4 C           4.4225   -1.3533    0.7569 C.ar    1  UNL1        0.0486
      5 C           4.9025   -2.5418    1.4136 C.ar    1  UNL1        0.0829
      6 C           3.9148   -3.5530    1.9723 C.3     1  UNL1       -0.0067
      7 C           2.4963   -3.0750    1.7082 C.3     1  UNL1       -0.0393
      8 C           1.5086   -4.0862    2.2669 C.3     1  UNL1        0.0241
      9 C           0.0901   -3.6082    2.0028 C.2     1  UNL1        0.2105
     10 N          -0.1384   -2.3371    1.3005 N.am    1  UNL1       -0.3293
     11 O          -0.8984   -4.3073    2.3891 O.2     1  UNL1       -0.2760
     12 N           6.2719   -2.7646    1.5367 N.ar    1  UNL1       -0.1345
     13 N           2.1788   -2.0256    1.1284 N.ar    1  UNL1       -0.0655
     14 H           0.6865    0.9655   -0.5243 H       1  UNL1        0.0247
     15 H           0.6864    0.0636    0.9722 H       1  UNL1        0.0247
     16 H           0.6864   -0.7815   -0.5572 H       1  UNL1        0.0247
     17 H           2.9198    0.9465    0.4843 H       1  UNL1        0.0506
     18 H           2.9198    0.1015   -1.0451 H       1  UNL1        0.0506
     19 H           5.0931   -0.6667    0.3776 H       1  UNL1        0.0845
     20 H           4.0664   -3.6547    3.0267 H       1  UNL1        0.0329
     21 H           4.0664   -4.4997    1.4973 H       1  UNL1        0.0329
     22 H           2.3447   -2.9733    0.6539 H       1  UNL1        0.0273
     23 H           2.3447   -2.1283    2.1833 H       1  UNL1        0.0273
     24 H           1.6602   -4.1878    3.3213 H       1  UNL1        0.0358
     25 H           1.6602   -5.0329    1.7919 H       1  UNL1        0.0358
     26 H           0.6273   -1.7955    1.0013 H       1  UNL1        0.1449
     27 H          -1.0572   -2.0275    1.1294 H       1  UNL1        0.1449
@<TRIPOS>BOND
     1     1     2    1
     2     2     3    1
     3     3     4   ar
     4     4     5   ar
     5     5     6    1
     6     6     7    1
     7     7     8    1
     8     8     9    1
     9     9    10   am
    10     9    11    2
    11     5    12   ar
    12    12    13   ar
    13     3    13   ar
    14     1    14    1
    15     1    15    1
    16     1    16    1
    17     2    17    1
    18     2    18    1
    19     4    19    1
    20     6    20    1
    21     6    21    1
    22     7    22    1
    23     7    23    1
    24     8    24    1
    25     8    25    1
    26    10    26    1
    27    10    27    1
