@<TRIPOS>MOLECULE
*****
 54 54 0 0 0
SMALL
GASTEIGER

@<TRIPOS>ATOM
      1 O           1.0783   -0.0600   -0.0163 O.2     1  UNL1       -0.2758
      2 C           2.3492   -0.0600   -0.0163 C.2     1  UNL1        0.2130
      3 C           3.1092    0.0477    1.2956 C.3     1  UNL1        0.0240
      4 C           2.1215    0.1422    2.4471 C.3     1  UNL1       -0.0448
      5 C           2.8815    0.2498    3.7590 C.3     1  UNL1       -0.0526
      6 C           1.8937    0.3443    4.9105 C.3     1  UNL1       -0.0530
      7 C           2.6537    0.4520    6.2224 C.3     1  UNL1       -0.0526
      8 C           1.6660    0.5465    7.3739 C.3     1  UNL1       -0.0448
      9 C           2.4260    0.6541    8.6858 C.3     1  UNL1        0.0243
     10 C           1.4382    0.7486    9.8373 C.2     1  UNL1        0.2172
     11 O           0.1887    0.7296    9.6058 O.2     1  UNL1       -0.2755
     12 N           1.9282    0.8620   11.2186 N.am    1  UNL1       -0.2855
     13 C           0.9730    0.9533   12.3321 C.ar    1  UNL1        0.0334
     14 C           1.4530    1.0644   13.6854 C.ar    1  UNL1       -0.0405
     15 C           0.5171    1.1539   14.7764 C.ar    1  UNL1       -0.0600
     16 C           0.9972    1.2650   16.1297 C.ar    1  UNL1       -0.0616
     17 C           0.0613    1.3545   17.2207 C.ar    1  UNL1       -0.0600
     18 C          -0.4430    0.9318   12.0698 C.ar    1  UNL1       -0.0405
     19 N           3.0842   -0.1641   -1.2851 N.am    1  UNL1       -0.3153
     20 C           4.5542   -0.1641   -1.2851 C.3     1  UNL1        0.0117
     21 C           5.0609   -0.2813   -2.7134 C.3     1  UNL1       -0.0353
     22 C           6.5809   -0.2813   -2.7134 C.3     1  UNL1       -0.0283
     23 C           7.0875   -0.3985   -4.1416 C.3     1  UNL1        0.0443
     24 O           8.5075   -0.3985   -4.1416 O.3     1  UNL1       -0.3950
     25 H           3.7244    0.9230    1.2807 H       1  UNL1        0.0358
     26 H           3.7244   -0.8184    1.4236 H       1  UNL1        0.0358
     27 H           1.5063   -0.7332    2.4620 H       1  UNL1        0.0270
     28 H           1.5063    1.0082    2.3191 H       1  UNL1        0.0270
     29 H           3.4966    1.1252    3.7441 H       1  UNL1        0.0265
     30 H           3.4966   -0.6163    3.8870 H       1  UNL1        0.0265
     31 H           1.2786   -0.5311    4.9254 H       1  UNL1        0.0265
     32 H           1.2786    1.2104    4.7825 H       1  UNL1        0.0265
     33 H           3.2689    1.3273    6.2075 H       1  UNL1        0.0265
     34 H           3.2689   -0.4141    6.3504 H       1  UNL1        0.0265
     35 H           1.0508   -0.3289    7.3888 H       1  UNL1        0.0270
     36 H           1.0508    1.4125    7.2459 H       1  UNL1        0.0270
     37 H           3.0411    1.5295    8.6709 H       1  UNL1        0.0358
     38 H           3.0411   -0.2120    8.8138 H       1  UNL1        0.0358
     39 H           2.8962    0.8767   11.3979 H       1  UNL1        0.1548
     40 H           2.4677    1.0798   13.8734 H       1  UNL1        0.0636
     41 H          -0.4975    1.1385   14.5885 H       1  UNL1        0.0618
     42 H           2.0118    1.2804   16.3176 H       1  UNL1        0.0618
     43 H          -0.2486    1.4350   18.2017 H       1  UNL1        0.0618
     44 H          -1.1405    0.8696   11.3118 H       1  UNL1        0.0636
     45 H           2.5920   -0.2339   -2.1349 H       1  UNL1        0.1487
     46 H           4.9109   -0.9936   -0.7109 H       1  UNL1        0.0462
     47 H           4.9109    0.7479   -0.8538 H       1  UNL1        0.0462
     48 H           4.7042    0.5481   -3.2875 H       1  UNL1        0.0281
     49 H           4.7042   -1.1933   -3.1446 H       1  UNL1        0.0281
     50 H           6.9375   -1.1108   -2.1392 H       1  UNL1        0.0288
     51 H           6.9375    0.6306   -2.2821 H       1  UNL1        0.0288
     52 H           6.7309    0.4309   -4.7158 H       1  UNL1        0.0557
     53 H           6.7309   -1.3105   -4.5729 H       1  UNL1        0.0557
     54 H           8.8309    0.4282   -3.7507 H       1  UNL1        0.2094
@<TRIPOS>BOND
     1     1     2    2
     2     2     3    1
     3     3     4    1
     4     4     5    1
     5     5     6    1
     6     6     7    1
     7     7     8    1
     8     8     9    1
     9     9    10    1
    10    10    11    2
    11    10    12   am
    12    12    13    1
    13    13    14   ar
    14    14    15   ar
    15    15    16   ar
    16    16    17   ar
    17    17    18   ar
    18    13    18   ar
    19     2    19   am
    20    19    20    1
    21    20    21    1
    22    21    22    1
    23    22    23    1
    24    23    24    1
    25     3    25    1
    26     3    26    1
    27     4    27    1
    28     4    28    1
    29     5    29    1
    30     5    30    1
    31     6    31    1
    32     6    32    1
    33     7    33    1
    34     7    34    1
    35     8    35    1
    36     8    36    1
    37     9    37    1
    38     9    38    1
    39    12    39    1
    40    14    40    1
    41    15    41    1
    42    16    42    1
    43    17    43    1
    44    18    44    1
    45    19    45    1
    46    20    46    1
    47    20    47    1
    48    21    48    1
    49    21    49    1
    50    22    50    1
    51    22    51    1
    52    23    52    1
    53    23    53    1
    54    24    54    1
