@<TRIPOS>MOLECULE
*****
 33 32 0 0 0
SMALL
GASTEIGER

@<TRIPOS>ATOM
      1 C           1.0071    0.0226   -0.0972 C.3     1  UNL1       -0.0653
      2 C           2.5271    0.0226   -0.0972 C.3     1  UNL1       -0.0559
      3 C           3.0337   -0.6810    1.1513 C.3     1  UNL1       -0.0533
      4 C           4.5537   -0.6810    1.1513 C.3     1  UNL1       -0.0531
      5 C           5.0604   -1.3846    2.3998 C.3     1  UNL1       -0.0530
      6 C           6.5804   -1.3846    2.3998 C.3     1  UNL1       -0.0516
      7 C           7.0870   -2.0881    3.6483 C.3     1  UNL1       -0.0374
      8 C           8.6070   -2.0881    3.6483 C.3     1  UNL1        0.0116
      9 N           9.0970   -2.7686    4.8557 N.am    1  UNL1       -0.3155
     10 C          10.5423   -2.9004    5.0897 C.2     1  UNL1        0.2099
     11 C          11.5300   -2.3332    4.0832 C.3     1  UNL1        0.0121
     12 O          10.9659   -3.4887    6.1335 O.2     1  UNL1       -0.2761
     13 H           0.6504    0.5179   -0.9760 H       1  UNL1        0.0230
     14 H           0.6504    0.5361    0.7712 H       1  UNL1        0.0230
     15 H           0.6504   -0.9862   -0.0867 H       1  UNL1        0.0230
     16 H           2.8837    1.0313   -0.1077 H       1  UNL1        0.0263
     17 H           2.8837   -0.4909   -0.9655 H       1  UNL1        0.0263
     18 H           2.6770   -1.6897    1.1618 H       1  UNL1        0.0265
     19 H           2.6770   -0.1675    2.0197 H       1  UNL1        0.0265
     20 H           4.9104    0.3278    1.1408 H       1  UNL1        0.0265
     21 H           4.9104   -1.1945    0.2830 H       1  UNL1        0.0265
     22 H           4.7037   -2.3933    2.4103 H       1  UNL1        0.0265
     23 H           4.7037   -0.8711    3.2681 H       1  UNL1        0.0265
     24 H           6.9370   -0.3758    2.3893 H       1  UNL1        0.0266
     25 H           6.9370   -1.8980    1.5314 H       1  UNL1        0.0266
     26 H           6.7304   -3.0969    3.6588 H       1  UNL1        0.0280
     27 H           6.7304   -1.5747    4.5166 H       1  UNL1        0.0280
     28 H           8.9637   -1.0794    3.6377 H       1  UNL1        0.0462
     29 H           8.9637   -2.6016    2.7799 H       1  UNL1        0.0462
     30 H           8.4573   -3.1359    5.5076 H       1  UNL1        0.1487
     31 H          10.9950   -1.8783    3.2759 H       1  UNL1        0.0322
     32 H          12.1452   -3.1222    3.7036 H       1  UNL1        0.0322
     33 H          12.1452   -1.6000    4.5615 H       1  UNL1        0.0322
@<TRIPOS>BOND
     1     1     2    1
     2     2     3    1
     3     3     4    1
     4     4     5    1
     5     5     6    1
     6     6     7    1
     7     7     8    1
     8     8     9    1
     9     9    10   am
    10    10    11    1
    11    10    12    2
    12     1    13    1
    13     1    14    1
    14     1    15    1
    15     2    16    1
    16     2    17    1
    17     3    18    1
    18     3    19    1
    19     4    20    1
    20     4    21    1
    21     5    22    1
    22     5    23    1
    23     6    24    1
    24     6    25    1
    25     7    26    1
    26     7    27    1
    27     8    28    1
    28     8    29    1
    29     9    30    1
    30    11    31    1
    31    11    32    1
    32    11    33    1
