@<TRIPOS>MOLECULE
*****
 42 41 0 0 0
SMALL
GASTEIGER

@<TRIPOS>ATOM
      1 N           0.9160   -0.0391   -0.0377 N.3     1  UNL1       -0.3279
      2 C           2.3860   -0.0391   -0.0377 C.3     1  UNL1        0.0166
      3 C           2.8927   -1.1512    0.8661 C.3     1  UNL1        0.0600
      4 O           4.3127   -1.1512    0.8661 O.3     1  UNL1       -0.3763
      5 C           4.7860   -2.1902    1.7104 C.3     1  UNL1        0.0711
      6 C           6.3060   -2.1902    1.7104 C.3     1  UNL1        0.0711
      7 O           6.7793   -3.2292    2.5547 O.3     1  UNL1       -0.3752
      8 C           8.1993   -3.2292    2.5547 C.3     1  UNL1        0.0711
      9 C           8.7060   -4.3413    3.4585 C.3     1  UNL1        0.0711
     10 O          10.1260   -4.3413    3.4585 O.3     1  UNL1       -0.3752
     11 C          10.5993   -5.3803    4.3028 C.3     1  UNL1        0.0711
     12 C          12.1193   -5.3803    4.3028 C.3     1  UNL1        0.0711
     13 O          12.5927   -6.4193    5.1471 O.3     1  UNL1       -0.3760
     14 C          14.0127   -6.4193    5.1471 C.3     1  UNL1        0.0632
     15 C          14.5193   -7.5315    6.0509 C.3     1  UNL1        0.0348
     16 N          15.9893   -7.5315    6.0509 N.am    1  UNL1       -0.3157
     17 C          16.7243   -8.5194    6.8537 C.2     1  UNL1        0.2000
     18 O          17.9952   -8.5194    6.8537 O.2     1  UNL1       -0.2795
     19 H           0.5760    0.7073   -0.6442 H       1  UNL1        0.1183
     20 H           0.5760    0.1130    0.9119 H       1  UNL1        0.1183
     21 H           2.7427    0.9034    0.3222 H       1  UNL1        0.0444
     22 H           2.7427   -0.1986   -1.0338 H       1  UNL1        0.0444
     23 H           2.5360   -2.0936    0.5062 H       1  UNL1        0.0572
     24 H           2.5360   -0.9917    1.8622 H       1  UNL1        0.0572
     25 H           4.4293   -3.1326    1.3505 H       1  UNL1        0.0583
     26 H           4.4293   -2.0307    2.7065 H       1  UNL1        0.0583
     27 H           6.6627   -1.2478    2.0703 H       1  UNL1        0.0583
     28 H           6.6627   -2.3497    0.7143 H       1  UNL1        0.0583
     29 H           8.5560   -2.2868    2.9146 H       1  UNL1        0.0583
     30 H           8.5560   -3.3887    1.5586 H       1  UNL1        0.0583
     31 H           8.3493   -5.2838    3.0986 H       1  UNL1        0.0583
     32 H           8.3493   -4.1818    4.4546 H       1  UNL1        0.0583
     33 H          10.2427   -6.3227    3.9429 H       1  UNL1        0.0583
     34 H          10.2427   -5.2208    5.2989 H       1  UNL1        0.0583
     35 H          12.4760   -4.4379    4.6627 H       1  UNL1        0.0583
     36 H          12.4760   -5.5398    3.3067 H       1  UNL1        0.0583
     37 H          14.3693   -5.4769    5.5070 H       1  UNL1        0.0575
     38 H          14.3693   -6.5788    4.1510 H       1  UNL1        0.0575
     39 H          14.1627   -8.4739    5.6910 H       1  UNL1        0.0484
     40 H          14.1627   -7.3719    7.0470 H       1  UNL1        0.0484
     41 H          16.4816   -6.8698    5.5132 H       1  UNL1        0.1485
     42 H          16.2083   -9.2130    7.4174 H       1  UNL1        0.1251
@<TRIPOS>BOND
     1     1     2    1
     2     2     3    1
     3     3     4    1
     4     4     5    1
     5     5     6    1
     6     6     7    1
     7     7     8    1
     8     8     9    1
     9     9    10    1
    10    10    11    1
    11    11    12    1
    12    12    13    1
    13    13    14    1
    14    14    15    1
    15    15    16    1
    16    16    17   am
    17    17    18    2
    18     1    19    1
    19     1    20    1
    20     2    21    1
    21     2    22    1
    22     3    23    1
    23     3    24    1
    24     5    25    1
    25     5    26    1
    26     6    27    1
    27     6    28    1
    28     8    29    1
    29     8    30    1
    30     9    31    1
    31     9    32    1
    32    11    33    1
    33    11    34    1
    34    12    35    1
    35    12    36    1
    36    14    37    1
    37    14    38    1
    38    15    39    1
    39    15    40    1
    40    16    41    1
    41    17    42    1
