@<TRIPOS>MOLECULE
*****
 27 26 0 0 0
SMALL
GASTEIGER

@<TRIPOS>ATOM
      1 C           1.0502   -0.0694   -0.0516 C.3     1  UNL1        0.0365
      2 O           2.4702   -0.0694   -0.0516 O.3     1  UNL1       -0.3807
      3 C           2.9435    0.8450   -1.0296 C.3     1  UNL1        0.0706
      4 C           4.4635    0.8450   -1.0296 C.3     1  UNL1        0.0711
      5 O           4.9369    1.7593   -2.0075 O.3     1  UNL1       -0.3752
      6 C           6.3569    1.7593   -2.0075 C.3     1  UNL1        0.0711
      7 C           6.8635    2.7381   -3.0543 C.3     1  UNL1        0.0711
      8 O           8.2835    2.7381   -3.0543 O.3     1  UNL1       -0.3752
      9 C           8.7568    3.6524   -4.0322 C.3     1  UNL1        0.0708
     10 C          10.2768    3.6524   -4.0322 C.3     1  UNL1        0.0676
     11 O          10.7502    4.5668   -5.0101 O.3     1  UNL1       -0.3927
     12 H           0.6935   -0.7584    0.6852 H       1  UNL1        0.0524
     13 H           0.6935   -0.3630   -1.0168 H       1  UNL1        0.0524
     14 H           0.6935    0.9133    0.1766 H       1  UNL1        0.0524
     15 H           2.5869    1.8276   -0.8013 H       1  UNL1        0.0582
     16 H           2.5869    0.5513   -1.9947 H       1  UNL1        0.0582
     17 H           4.8202   -0.1377   -1.2578 H       1  UNL1        0.0583
     18 H           4.8202    1.1386   -0.0644 H       1  UNL1        0.0583
     19 H           6.7135    0.7767   -2.2357 H       1  UNL1        0.0583
     20 H           6.7135    2.0530   -1.0424 H       1  UNL1        0.0583
     21 H           6.5069    3.7207   -2.8260 H       1  UNL1        0.0583
     22 H           6.5069    2.4444   -4.0194 H       1  UNL1        0.0583
     23 H           8.4002    4.6351   -3.8039 H       1  UNL1        0.0583
     24 H           8.4002    3.3587   -4.9973 H       1  UNL1        0.0583
     25 H          10.6335    2.6698   -4.2604 H       1  UNL1        0.0580
     26 H          10.6335    3.9461   -3.0671 H       1  UNL1        0.0580
     27 H          10.4268    4.3005   -5.8850 H       1  UNL1        0.2095
@<TRIPOS>BOND
     1     1     2    1
     2     2     3    1
     3     3     4    1
     4     4     5    1
     5     5     6    1
     6     6     7    1
     7     7     8    1
     8     8     9    1
     9     9    10    1
    10    10    11    1
    11     1    12    1
    12     1    13    1
    13     1    14    1
    14     3    15    1
    15     3    16    1
    16     4    17    1
    17     4    18    1
    18     6    19    1
    19     6    20    1
    20     7    21    1
    21     7    22    1
    22     9    23    1
    23     9    24    1
    24    10    25    1
    25    10    26    1
    26    11    27    1
