@<TRIPOS>MOLECULE
*****
 9 8 0 0 0
SMALL
GASTEIGER

@<TRIPOS>ATOM
      1 C           0.9976   -0.0318    0.0948 C.3     1  UNL1       -0.0418
      2 C           2.5176   -0.0318    0.0948 C.3     1  UNL1        0.0414
      3 O           2.9909    0.5481   -1.1119 O.3     1  UNL1       -0.3953
      4 H           0.6410   -0.4688    1.0040 H       1  UNL1        0.0252
      5 H           0.6410   -0.6008   -0.7383 H       1  UNL1        0.0252
      6 H           0.6409    0.9741    0.0186 H       1  UNL1        0.0252
      7 H           2.8743   -1.0378    0.1709 H       1  UNL1        0.0554
      8 H           2.8743    0.5371    0.9278 H       1  UNL1        0.0554
      9 H           2.6676    0.0323   -1.8671 H       1  UNL1        0.2094
@<TRIPOS>BOND
     1     1     2    1
     2     2     3    1
     3     1     4    1
     4     1     5    1
     5     1     6    1
     6     2     7    1
     7     2     8    1
     8     3     9    1
