@<TRIPOS>MOLECULE
*****
 27 26 0 0 0
SMALL
GASTEIGER

@<TRIPOS>ATOM
      1 N           1.0940   -0.0313    0.0136 N.3     1  UNL1       -0.3300
      2 C           2.5640   -0.0313    0.0136 C.3     1  UNL1       -0.0069
      3 C           3.0707   -1.4545    0.1812 C.3     1  UNL1       -0.0406
      4 C           4.5907   -1.4545    0.1812 C.3     1  UNL1       -0.0519
      5 C           5.0973   -2.8777    0.3489 C.3     1  UNL1       -0.0530
      6 C           6.6173   -2.8777    0.3489 C.3     1  UNL1       -0.0527
      7 C           7.1240   -4.3010    0.5165 C.3     1  UNL1       -0.0466
      8 C           8.6440   -4.3010    0.5165 C.3     1  UNL1        0.0028
      9 C           9.1507   -5.7242    0.6842 C.2     1  UNL1        0.1203
     10 O          10.4002   -5.9548    0.7113 O.2     1  UNL1       -0.3010
     11 H           0.7540    0.9238   -0.0989 H       1  UNL1        0.1182
     12 H           0.7540   -0.4114    0.8969 H       1  UNL1        0.1182
     13 H           2.9207    0.5719    0.8222 H       1  UNL1        0.0422
     14 H           2.9207    0.3675   -0.9131 H       1  UNL1        0.0422
     15 H           2.7140   -2.0576   -0.6274 H       1  UNL1        0.0277
     16 H           2.7140   -1.8532    1.1079 H       1  UNL1        0.0277
     17 H           4.9473   -0.8514    0.9899 H       1  UNL1        0.0266
     18 H           4.9473   -1.0558   -0.7454 H       1  UNL1        0.0266
     19 H           4.7407   -3.4809   -0.4598 H       1  UNL1        0.0265
     20 H           4.7407   -3.2765    1.2755 H       1  UNL1        0.0265
     21 H           6.9740   -2.2746    1.1575 H       1  UNL1        0.0265
     22 H           6.9740   -2.4790   -0.5778 H       1  UNL1        0.0265
     23 H           6.7673   -4.9041   -0.2921 H       1  UNL1        0.0269
     24 H           6.7673   -4.6997    1.4432 H       1  UNL1        0.0269
     25 H           9.0007   -3.6978    1.3252 H       1  UNL1        0.0339
     26 H           9.0007   -3.9022   -0.4101 H       1  UNL1        0.0339
     27 H           8.4800   -6.5032    0.7759 H       1  UNL1        0.1026
@<TRIPOS>BOND
     1     1     2    1
     2     2     3    1
     3     3     4    1
     4     4     5    1
     5     5     6    1
     6     6     7    1
     7     7     8    1
     8     8     9    1
     9     9    10    2
    10     1    11    1
    11     1    12    1
    12     2    13    1
    13     2    14    1
    14     3    15    1
    15     3    16    1
    16     4    17    1
    17     4    18    1
    18     5    19    1
    19     5    20    1
    20     6    21    1
    21     6    22    1
    22     7    23    1
    23     7    24    1
    24     8    25    1
    25     8    26    1
    26     9    27    1
