@<TRIPOS>MOLECULE
*****
 27 27 0 0 0
SMALL
GASTEIGER

@<TRIPOS>ATOM
      1 C           0.9249    0.0615    0.0240 C.3     1  UNL1       -0.0454
      2 C           2.4449    0.0615    0.0240 C.3     1  UNL1        0.0404
      3 N           2.9349   -0.9607   -0.9119 N.ar    1  UNL1       -0.2517
      4 C           4.3042   -1.1484   -1.0838 C.ar    1  UNL1        0.0486
      5 C           4.7843   -2.1499   -2.0007 C.ar    1  UNL1        0.0829
      6 C           3.7965   -3.0020   -2.7809 C.3     1  UNL1       -0.0067
      7 C           2.3781   -2.5992   -2.4121 C.3     1  UNL1       -0.0393
      8 C           1.3903   -3.4512   -3.1923 C.3     1  UNL1        0.0241
      9 C          -0.0282   -3.0484   -2.8235 C.2     1  UNL1        0.2105
     10 N          -0.2567   -1.9774   -1.8428 N.am    1  UNL1       -0.3293
     11 O          -1.0167   -3.6376   -3.3629 O.2     1  UNL1       -0.2760
     12 N           6.1537   -2.3376   -2.1726 N.ar    1  UNL1       -0.1345
     13 N           2.0605   -1.7149   -1.6025 N.ar    1  UNL1       -0.0655
     14 H           0.5682    0.8055    0.7053 H       1  UNL1        0.0247
     15 H           0.5682   -0.9005    0.3277 H       1  UNL1        0.0247
     16 H           0.5682    0.2794   -0.9609 H       1  UNL1        0.0247
     17 H           2.8015   -0.1565    1.0090 H       1  UNL1        0.0506
     18 H           2.8015    1.0235   -0.2797 H       1  UNL1        0.0506
     19 H           4.9749   -0.5699   -0.5541 H       1  UNL1        0.0845
     20 H           3.9482   -4.0336   -2.5410 H       1  UNL1        0.0329
     21 H           3.9482   -2.8537   -3.8297 H       1  UNL1        0.0329
     22 H           2.2264   -1.5675   -2.6520 H       1  UNL1        0.0273
     23 H           2.2264   -2.7474   -1.3633 H       1  UNL1        0.0273
     24 H           1.5419   -4.4829   -2.9524 H       1  UNL1        0.0358
     25 H           1.5419   -3.3029   -4.2411 H       1  UNL1        0.0358
     26 H           0.5091   -1.5211   -1.4250 H       1  UNL1        0.1449
     27 H          -1.1754   -1.7165   -1.6040 H       1  UNL1        0.1449
@<TRIPOS>BOND
     1     1     2    1
     2     2     3    1
     3     3     4   ar
     4     4     5   ar
     5     5     6    1
     6     6     7    1
     7     7     8    1
     8     8     9    1
     9     9    10   am
    10     9    11    2
    11     5    12   ar
    12    12    13   ar
    13     3    13   ar
    14     1    14    1
    15     1    15    1
    16     1    16    1
    17     2    17    1
    18     2    18    1
    19     4    19    1
    20     6    20    1
    21     6    21    1
    22     7    22    1
    23     7    23    1
    24     8    24    1
    25     8    25    1
    26    10    26    1
    27    10    27    1
