@<TRIPOS>MOLECULE
*****
 32 31 0 0 0
SMALL
GASTEIGER

@<TRIPOS>ATOM
      1 C           1.0757   -0.0277    0.0592 C.3     1  UNL1       -0.0648
      2 C           2.5957   -0.0277    0.0592 C.3     1  UNL1       -0.0476
      3 C           3.1024   -0.4053    1.4416 C.3     1  UNL1        0.0239
      4 C           4.6224   -0.4053    1.4416 C.2     1  UNL1        0.2153
      5 O           5.2578   -0.1153    0.3799 O.2     1  UNL1       -0.2756
      6 N           5.3574   -0.7408    2.6697 N.am    1  UNL1       -0.3033
      7 C           4.6224   -1.0762    3.8977 C.3     1  UNL1        0.0032
      8 C           6.8274   -0.7408    2.6697 C.3     1  UNL1        0.0271
      9 C           7.3340   -1.1184    4.0521 C.3     1  UNL1        0.0141
     10 N           8.8040   -1.1184    4.0521 N.3     1  UNL1       -0.3069
     11 C           9.2940    0.2221    3.6999 C.3     1  UNL1       -0.0130
     12 C           9.2940   -1.4835    5.3891 C.3     1  UNL1       -0.0130
     13 H           0.7190    0.2381   -0.9140 H       1  UNL1        0.0230
     14 H           0.7190    0.6822    0.7760 H       1  UNL1        0.0230
     15 H           0.7190   -1.0034    0.3156 H       1  UNL1        0.0230
     16 H           2.9524    0.9480   -0.1972 H       1  UNL1        0.0267
     17 H           2.9524   -0.7376   -0.6576 H       1  UNL1        0.0267
     18 H           2.7457   -1.3810    1.6980 H       1  UNL1        0.0358
     19 H           2.7457    0.3046    2.1584 H       1  UNL1        0.0358
     20 H           3.5704   -1.0247    3.7091 H       1  UNL1        0.0428
     21 H           4.8809   -0.3813    4.6692 H       1  UNL1        0.0428
     22 H           4.8809   -2.0668    4.2088 H       1  UNL1        0.0428
     23 H           7.1840    0.2349    2.4133 H       1  UNL1        0.0477
     24 H           7.1840   -1.4506    1.9529 H       1  UNL1        0.0477
     25 H           6.9774   -2.0940    4.3085 H       1  UNL1        0.0442
     26 H           6.9774   -0.4085    4.7689 H       1  UNL1        0.0442
     27 H           8.9374    0.4879    2.7267 H       1  UNL1        0.0391
     28 H          10.3640    0.2221    3.6999 H       1  UNL1        0.0391
     29 H           8.9374    0.9319    4.4167 H       1  UNL1        0.0391
     30 H           8.9373   -2.4592    5.6454 H       1  UNL1        0.0391
     31 H           8.9373   -0.7737    6.1058 H       1  UNL1        0.0391
     32 H          10.3640   -1.4835    5.3891 H       1  UNL1        0.0391
@<TRIPOS>BOND
     1     1     2    1
     2     2     3    1
     3     3     4    1
     4     4     5    2
     5     4     6   am
     6     6     7    1
     7     6     8    1
     8     8     9    1
     9     9    10    1
    10    10    11    1
    11    10    12    1
    12     1    13    1
    13     1    14    1
    14     1    15    1
    15     2    16    1
    16     2    17    1
    17     3    18    1
    18     3    19    1
    19     7    20    1
    20     7    21    1
    21     7    22    1
    22     8    23    1
    23     8    24    1
    24     9    25    1
    25     9    26    1
    26    11    27    1
    27    11    28    1
    28    11    29    1
    29    12    30    1
    30    12    31    1
    31    12    32    1
