@<TRIPOS>MOLECULE
*****
 50 50 0 0 0
SMALL
GASTEIGER

@<TRIPOS>ATOM
      1 N           0.9219   -0.0056   -0.0622 N.3     1  UNL1       -0.3300
      2 C           2.3919   -0.0056   -0.0622 C.3     1  UNL1       -0.0069
      3 C           2.8985   -0.9219    1.0397 C.3     1  UNL1       -0.0406
      4 C           4.4185   -0.9219    1.0397 C.3     1  UNL1       -0.0519
      5 C           4.9252   -1.8382    2.1415 C.3     1  UNL1       -0.0530
      6 C           6.4452   -1.8382    2.1415 C.3     1  UNL1       -0.0514
      7 C           6.9518   -2.7546    3.2433 C.3     1  UNL1       -0.0333
      8 C           8.4718   -2.7546    3.2433 C.3     1  UNL1        0.0432
      9 N           8.9618   -3.6408    4.3089 N.ar    1  UNL1       -0.2515
     10 C          10.3312   -3.8035    4.5046 C.ar    1  UNL1        0.0486
     11 C          10.8113   -4.6718    5.5485 C.ar    1  UNL1        0.0828
     12 C           9.8235   -5.4105    6.4368 C.3     1  UNL1       -0.0071
     13 C           8.4050   -5.0613    6.0169 C.3     1  UNL1       -0.0475
     14 C           7.4173   -5.8000    6.9052 C.3     1  UNL1       -0.0526
     15 C           5.9988   -5.4508    6.4853 C.3     1  UNL1       -0.0510
     16 C           5.0111   -6.1895    7.3735 C.3     1  UNL1       -0.0297
     17 C           3.5926   -5.8403    6.9536 C.3     1  UNL1        0.0442
     18 O           2.6698   -6.5304    7.7834 O.3     1  UNL1       -0.3950
     19 N          12.1806   -4.8345    5.7442 N.ar    1  UNL1       -0.1345
     20 N           8.0875   -4.2947    5.0952 N.ar    1  UNL1       -0.0655
     21 H           0.5819    0.6094   -0.8015 H       1  UNL1        0.1182
     22 H           0.5819    0.3273    0.8401 H       1  UNL1        0.1182
     23 H           2.7485    0.9887    0.1087 H       1  UNL1        0.0422
     24 H           2.7485   -0.3547   -1.0086 H       1  UNL1        0.0422
     25 H           2.5419   -1.9161    0.8688 H       1  UNL1        0.0277
     26 H           2.5418   -0.5727    1.9861 H       1  UNL1        0.0277
     27 H           4.7752    0.0723    1.2105 H       1  UNL1        0.0266
     28 H           4.7752   -1.2711    0.0932 H       1  UNL1        0.0266
     29 H           4.5685   -2.8325    1.9707 H       1  UNL1        0.0265
     30 H           4.5685   -1.4891    3.0879 H       1  UNL1        0.0265
     31 H           6.8018   -0.8440    2.3123 H       1  UNL1        0.0266
     32 H           6.8018   -2.1874    1.1950 H       1  UNL1        0.0266
     33 H           6.5952   -3.7488    3.0725 H       1  UNL1        0.0283
     34 H           6.5952   -2.4054    4.1898 H       1  UNL1        0.0283
     35 H           8.8285   -1.7603    3.4141 H       1  UNL1        0.0509
     36 H           8.8285   -3.1038    2.2969 H       1  UNL1        0.0509
     37 H          11.0018   -3.3020    3.9015 H       1  UNL1        0.0845
     38 H           9.9751   -5.1217    7.4559 H       1  UNL1        0.0329
     39 H           9.9751   -6.4651    6.3386 H       1  UNL1        0.0329
     40 H           8.2534   -5.3501    4.9978 H       1  UNL1        0.0269
     41 H           8.2534   -4.0066    6.1151 H       1  UNL1        0.0269
     42 H           7.5689   -5.5112    7.9243 H       1  UNL1        0.0265
     43 H           7.5689   -6.8547    6.8070 H       1  UNL1        0.0265
     44 H           5.8472   -5.7396    5.4662 H       1  UNL1        0.0266
     45 H           5.8472   -4.3961    6.5834 H       1  UNL1        0.0266
     46 H           5.1627   -5.9008    8.3926 H       1  UNL1        0.0287
     47 H           5.1627   -7.2442    7.2753 H       1  UNL1        0.0287
     48 H           3.4410   -6.1291    5.9345 H       1  UNL1        0.0557
     49 H           3.4410   -4.7857    7.0518 H       1  UNL1        0.0557
     50 H           2.8072   -7.4865    7.6944 H       1  UNL1        0.2094
@<TRIPOS>BOND
     1     1     2    1
     2     2     3    1
     3     3     4    1
     4     4     5    1
     5     5     6    1
     6     6     7    1
     7     7     8    1
     8     8     9    1
     9     9    10   ar
    10    10    11   ar
    11    11    12    1
    12    12    13    1
    13    13    14    1
    14    14    15    1
    15    15    16    1
    16    16    17    1
    17    17    18    1
    18    11    19   ar
    19    19    20   ar
    20     9    20   ar
    21     1    21    1
    22     1    22    1
    23     2    23    1
    24     2    24    1
    25     3    25    1
    26     3    26    1
    27     4    27    1
    28     4    28    1
    29     5    29    1
    30     5    30    1
    31     6    31    1
    32     6    32    1
    33     7    33    1
    34     7    34    1
    35     8    35    1
    36     8    36    1
    37    10    37    1
    38    12    38    1
    39    12    39    1
    40    13    40    1
    41    13    41    1
    42    14    42    1
    43    14    43    1
    44    15    44    1
    45    15    45    1
    46    16    46    1
    47    16    47    1
    48    17    48    1
    49    17    49    1
    50    18    50    1
