@<TRIPOS>MOLECULE
*****
 16 15 0 0 0
SMALL
GASTEIGER

@<TRIPOS>ATOM
      1 C           0.9762   -0.0420    0.0875 C.1     1  UNL1       -0.1192
      2 C           2.2800   -0.0420    0.0875 C.1     1  UNL1       -0.1056
      3 C           3.8000   -0.0420    0.0875 C.3     1  UNL1        0.0089
      4 C           4.3067    0.0399   -1.3432 C.3     1  UNL1       -0.0424
      5 C           5.8267    0.0399   -1.3432 C.3     1  UNL1       -0.0551
      6 C           6.3334    0.1219   -2.7739 C.3     1  UNL1       -0.0652
      7 H          -0.0178   -0.0420    0.0875 H       1  UNL1        0.1228
      8 H           4.1567   -0.9431    0.5412 H       1  UNL1        0.0397
      9 H           4.1567    0.8013    0.6411 H       1  UNL1        0.0397
     10 H           3.9500    0.9410   -1.7968 H       1  UNL1        0.0274
     11 H           3.9500   -0.8034   -1.8967 H       1  UNL1        0.0274
     12 H           6.1834   -0.8611   -0.8896 H       1  UNL1        0.0263
     13 H           6.1834    0.8833   -0.7896 H       1  UNL1        0.0263
     14 H           5.9767   -0.7215   -3.3274 H       1  UNL1        0.0230
     15 H           7.4034    0.1219   -2.7739 H       1  UNL1        0.0230
     16 H           5.9767    1.0230   -3.2275 H       1  UNL1        0.0230
@<TRIPOS>BOND
     1     1     2    3
     2     2     3    1
     3     3     4    1
     4     4     5    1
     5     5     6    1
     6     1     7    1
     7     3     8    1
     8     3     9    1
     9     4    10    1
    10     4    11    1
    11     5    12    1
    12     5    13    1
    13     6    14    1
    14     6    15    1
    15     6    16    1
