@<TRIPOS>MOLECULE
*****
 32 31 0 0 0
SMALL
GASTEIGER

@<TRIPOS>ATOM
      1 C           0.9459    0.0455    0.0708 C.3     1  UNL1       -0.0648
      2 C           2.4659    0.0455    0.0708 C.3     1  UNL1       -0.0476
      3 C           2.9726    1.0912    1.0507 C.3     1  UNL1        0.0239
      4 C           4.4926    1.0912    1.0507 C.2     1  UNL1        0.2153
      5 O           5.1281    0.2880    0.2981 O.2     1  UNL1       -0.2756
      6 N           5.2276    2.0201    1.9212 N.am    1  UNL1       -0.3033
      7 C           4.4926    2.9490    2.7917 C.3     1  UNL1        0.0032
      8 C           6.6976    2.0201    1.9212 C.3     1  UNL1        0.0271
      9 C           7.2043    3.0658    2.9011 C.3     1  UNL1        0.0141
     10 N           8.6743    3.0658    2.9011 N.3     1  UNL1       -0.3069
     11 C           9.1643    3.3808    1.5515 C.3     1  UNL1       -0.0130
     12 C           9.1643    4.0771    3.8488 C.3     1  UNL1       -0.0130
     13 H           0.5893   -0.6906   -0.6190 H       1  UNL1        0.0230
     14 H           0.5893    1.0109   -0.2218 H       1  UNL1        0.0230
     15 H           0.5893   -0.1839    1.0532 H       1  UNL1        0.0230
     16 H           2.8226    0.2748   -0.9116 H       1  UNL1        0.0267
     17 H           2.8226   -0.9200    0.3634 H       1  UNL1        0.0267
     18 H           2.6159    0.8618    2.0331 H       1  UNL1        0.0358
     19 H           2.6159    2.0566    0.7581 H       1  UNL1        0.0358
     20 H           3.4406    2.8063    2.6580 H       1  UNL1        0.0428
     21 H           4.7511    3.9558    2.5379 H       1  UNL1        0.0428
     22 H           4.7511    2.7610    3.8129 H       1  UNL1        0.0428
     23 H           7.0543    2.2494    0.9388 H       1  UNL1        0.0477
     24 H           7.0543    1.0546    2.2138 H       1  UNL1        0.0477
     25 H           6.8476    2.8364    3.8835 H       1  UNL1        0.0442
     26 H           6.8476    4.0312    2.6085 H       1  UNL1        0.0442
     27 H           8.8076    2.6447    0.8617 H       1  UNL1        0.0391
     28 H          10.2343    3.3808    1.5515 H       1  UNL1        0.0391
     29 H           8.8076    4.3463    1.2589 H       1  UNL1        0.0391
     30 H           8.8076    3.8477    4.8312 H       1  UNL1        0.0391
     31 H           8.8076    5.0425    3.5562 H       1  UNL1        0.0391
     32 H          10.2343    4.0771    3.8488 H       1  UNL1        0.0391
@<TRIPOS>BOND
     1     1     2    1
     2     2     3    1
     3     3     4    1
     4     4     5    2
     5     4     6   am
     6     6     7    1
     7     6     8    1
     8     8     9    1
     9     9    10    1
    10    10    11    1
    11    10    12    1
    12     1    13    1
    13     1    14    1
    14     1    15    1
    15     2    16    1
    16     2    17    1
    17     3    18    1
    18     3    19    1
    19     7    20    1
    20     7    21    1
    21     7    22    1
    22     8    23    1
    23     8    24    1
    24     9    25    1
    25     9    26    1
    26    11    27    1
    27    11    28    1
    28    11    29    1
    29    12    30    1
    30    12    31    1
    31    12    32    1
