@<TRIPOS>MOLECULE
*****
 24 23 0 0 0
SMALL
GASTEIGER

@<TRIPOS>ATOM
      1 C           0.9361   -0.0028   -0.0769 C.3     1  UNL1       -0.0653
      2 C           2.4561   -0.0028   -0.0769 C.3     1  UNL1       -0.0559
      3 C           2.9628    0.7206   -1.3139 C.3     1  UNL1       -0.0533
      4 C           4.4828    0.7206   -1.3139 C.3     1  UNL1       -0.0530
      5 C           4.9894    1.4440   -2.5510 C.3     1  UNL1       -0.0510
      6 C           6.5094    1.4440   -2.5510 C.3     1  UNL1       -0.0297
      7 C           7.0161    2.1675   -3.7881 C.3     1  UNL1        0.0442
      8 O           8.4361    2.1675   -3.7881 O.3     1  UNL1       -0.3950
      9 H           0.5794   -0.5121    0.7940 H       1  UNL1        0.0230
     10 H           0.5794   -0.5024   -0.9533 H       1  UNL1        0.0230
     11 H           0.5794    1.0059   -0.0712 H       1  UNL1        0.0230
     12 H           2.8128   -1.0116   -0.0825 H       1  UNL1        0.0263
     13 H           2.8128    0.4967    0.7996 H       1  UNL1        0.0263
     14 H           2.6061    1.7294   -1.3083 H       1  UNL1        0.0265
     15 H           2.6061    0.2211   -2.1904 H       1  UNL1        0.0265
     16 H           4.8394   -0.2882   -1.3196 H       1  UNL1        0.0265
     17 H           4.8394    1.2201   -0.4375 H       1  UNL1        0.0265
     18 H           4.6328    2.4528   -2.5454 H       1  UNL1        0.0266
     19 H           4.6327    0.9445   -3.4274 H       1  UNL1        0.0266
     20 H           6.8661    0.4352   -2.5566 H       1  UNL1        0.0287
     21 H           6.8661    1.9436   -1.6745 H       1  UNL1        0.0287
     22 H           6.6594    3.1763   -3.7824 H       1  UNL1        0.0557
     23 H           6.6594    1.6680   -4.6645 H       1  UNL1        0.0557
     24 H           8.7594    2.6203   -2.9935 H       1  UNL1        0.2094
@<TRIPOS>BOND
     1     1     2    1
     2     2     3    1
     3     3     4    1
     4     4     5    1
     5     5     6    1
     6     6     7    1
     7     7     8    1
     8     1     9    1
     9     1    10    1
    10     1    11    1
    11     2    12    1
    12     2    13    1
    13     3    14    1
    14     3    15    1
    15     4    16    1
    16     4    17    1
    17     5    18    1
    18     5    19    1
    19     6    20    1
    20     6    21    1
    21     7    22    1
    22     7    23    1
    23     8    24    1
