@<TRIPOS>MOLECULE
*****
 35 37 0 0 0
SMALL
GASTEIGER

@<TRIPOS>ATOM
      1 C           1.0741   -0.0154    0.0654 C.3     1  UNL1        0.0087
      2 C           2.5941   -0.0154    0.0654 C.3     1  UNL1        0.0118
      3 N           3.0841    1.2626    0.6017 N.3     1  UNL1       -0.2970
      4 C           2.5941    1.4370    1.9767 C.3     1  UNL1        0.0116
      5 C           1.0741    1.4370    1.9766 C.3     1  UNL1       -0.0304
      6 C           0.5674    1.6174    3.3983 C.3     1  UNL1       -0.0128
      7 C          -0.9526    1.6174    3.3983 C.3     1  UNL1       -0.0335
      8 C          -1.4593    1.7978    4.8200 C.3     1  UNL1       -0.0035
      9 N          -2.9293    1.7978    4.8200 N.3     1  UNL1       -0.3154
     10 C           1.0741    2.9388    3.9529 C.3     1  UNL1        0.0017
     11 C           3.1007    2.7584    2.5313 C.3     1  UNL1       -0.0304
     12 C           4.5541    1.2626    0.6017 C.3     1  UNL1        0.0118
     13 C           5.0607    2.5840    1.1564 C.3     1  UNL1        0.0087
     14 N           0.5841   -1.2933   -0.4710 N.3     1  UNL1       -0.3136
     15 H           0.7174    0.7878   -0.5450 H       1  UNL1        0.0437
     16 H           0.7174    0.1116    1.0662 H       1  UNL1        0.0437
     17 H           2.9508   -0.1423   -0.9354 H       1  UNL1        0.0439
     18 H           2.9508   -0.8186    0.6757 H       1  UNL1        0.0439
     19 H           2.9507    0.6338    2.5870 H       1  UNL1        0.0463
     20 H           0.7174    0.5068    1.5862 H       1  UNL1        0.0286
     21 H           0.7174    2.2402    1.3663 H       1  UNL1        0.0286
     22 H          -1.3093    0.6872    3.0079 H       1  UNL1        0.0283
     23 H          -1.3093    2.4206    2.7879 H       1  UNL1        0.0283
     24 H          -1.1026    2.7280    5.2104 H       1  UNL1        0.0424
     25 H          -1.1026    0.9946    5.4303 H       1  UNL1        0.0424
     26 H          -3.5095    2.2215    5.5440 H       1  UNL1        0.1220
     27 H           1.8058    2.9404    4.7336 H       1  UNL1        0.0429
     28 H           1.5253    3.8064    3.5187 H       1  UNL1        0.0429
     29 H           3.9388    2.7779    3.1963 H       1  UNL1        0.0286
     30 H           3.4166    3.6921    2.1148 H       1  UNL1        0.0286
     31 H           4.9108    1.1356   -0.3990 H       1  UNL1        0.0439
     32 H           4.9108    0.4594    1.2121 H       1  UNL1        0.0439
     33 H           5.3984    3.3991    0.5510 H       1  UNL1        0.0437
     34 H           5.5627    3.0807    1.9602 H       1  UNL1        0.0437
     35 H           0.2622   -2.0703    0.1061 H       1  UNL1        0.1220
@<TRIPOS>BOND
     1     1     2    1
     2     2     3    1
     3     3     4    1
     4     4     5    1
     5     5     6    1
     6     6     7    1
     7     7     8    1
     8     8     9    1
     9     9    10    1
    10     6    10    1
    11     6    11    1
    12     4    11    1
    13     3    12    1
    14    12    13    1
    15    13    14    1
    16     1    14    1
    17     1    15    1
    18     1    16    1
    19     2    17    1
    20     2    18    1
    21     4    19    1
    22     5    20    1
    23     5    21    1
    24     7    22    1
    25     7    23    1
    26     8    24    1
    27     8    25    1
    28     9    26    1
    29    10    27    1
    30    10    28    1
    31    11    29    1
    32    11    30    1
    33    12    31    1
    34    12    32    1
    35    13    33    1
    36    13    34    1
    37    14    35    1
