@<TRIPOS>MOLECULE
*****
 28 29 0 0 0
SMALL
GASTEIGER

@<TRIPOS>ATOM
      1 C           0.9211    0.0599   -0.0137 C.3     1  UNL1        0.0087
      2 C           2.4411    0.0599   -0.0137 C.3     1  UNL1        0.0115
      3 N           2.9311   -0.9964   -0.9109 N.3     1  UNL1       -0.2996
      4 C           2.4411   -0.7476   -2.2743 C.3     1  UNL1        0.0041
      5 C           0.9211   -0.7476   -2.2743 C.3     1  UNL1       -0.0032
      6 C           0.4144   -0.4903   -3.6841 C.3     1  UNL1        0.0011
      7 N          -1.0556   -0.4903   -3.6841 N.3     1  UNL1       -0.3153
      8 C           0.4144    0.3447   -1.3466 C.3     1  UNL1        0.0011
      9 C           4.4011   -0.9964   -0.9109 C.3     1  UNL1        0.0115
     10 C           4.9078   -2.0887   -1.8386 C.3     1  UNL1        0.0087
     11 N           0.4311    1.1162    0.8835 N.3     1  UNL1       -0.3136
     12 H           0.5644   -0.8901    0.3257 H       1  UNL1        0.0437
     13 H           0.5644    0.2410   -1.0061 H       1  UNL1        0.0437
     14 H           2.7978   -0.1212    0.9787 H       1  UNL1        0.0439
     15 H           2.7978    1.0099   -0.3530 H       1  UNL1        0.0439
     16 H           2.7978   -1.5165   -2.9274 H       1  UNL1        0.0430
     17 H           2.7978    0.2024   -2.6136 H       1  UNL1        0.0430
     18 H           0.5644   -1.6976   -1.9350 H       1  UNL1        0.0338
     19 H           0.7711   -1.2592   -4.3371 H       1  UNL1        0.0428
     20 H           0.7711    0.4598   -4.0234 H       1  UNL1        0.0428
     21 H          -1.5672   -1.3727   -3.6785 H       1  UNL1        0.1220
     22 H           0.0579    0.1005   -0.3677 H       1  UNL1        0.0428
     23 H           0.7957    1.2700   -0.9680 H       1  UNL1        0.0428
     24 H           4.7578   -1.1776    0.0815 H       1  UNL1        0.0439
     25 H           4.7578   -0.0464   -1.2502 H       1  UNL1        0.0439
     26 H           5.2454   -3.0485   -1.5077 H       1  UNL1        0.0437
     27 H           5.4098   -2.3195   -2.7549 H       1  UNL1        0.0437
     28 H           0.1092    2.0312    0.5680 H       1  UNL1        0.1220
@<TRIPOS>BOND
     1     1     2    1
     2     2     3    1
     3     3     4    1
     4     4     5    1
     5     5     6    1
     6     6     7    1
     7     7     8    1
     8     5     8    1
     9     3     9    1
    10     9    10    1
    11    10    11    1
    12     1    11    1
    13     1    12    1
    14     1    13    1
    15     2    14    1
    16     2    15    1
    17     4    16    1
    18     4    17    1
    19     5    18    1
    20     6    19    1
    21     6    20    1
    22     7    21    1
    23     8    22    1
    24     8    23    1
    25     9    24    1
    26     9    25    1
    27    10    26    1
    28    10    27    1
    29    11    28    1
