@<TRIPOS>MOLECULE
*****
 15 14 0 0 0
SMALL
GASTEIGER

@<TRIPOS>ATOM
      1 C           1.0614    0.0250    0.0748 C.3     1  UNL1       -0.0495
      2 C           2.5814    0.0250    0.0748 C.3     1  UNL1        0.0087
      3 N           3.0714   -1.0179   -0.8379 N.am    1  UNL1       -0.3158
      4 C           4.5167   -1.2201   -1.0148 C.2     1  UNL1        0.2099
      5 C           5.5044   -0.3507   -0.2539 C.3     1  UNL1        0.0121
      6 O           4.9403   -2.1218   -1.8039 O.2     1  UNL1       -0.2761
      7 H           0.7048    0.7842    0.7392 H       1  UNL1        0.0245
      8 H           0.7048   -0.9299    0.4001 H       1  UNL1        0.0245
      9 H           0.7048    0.2208   -0.9148 H       1  UNL1        0.0245
     10 H           2.9381   -0.1707    1.0645 H       1  UNL1        0.0459
     11 H           2.9381    0.9800   -0.2505 H       1  UNL1        0.0459
     12 H           2.4317   -1.5810   -1.3307 H       1  UNL1        0.1487
     13 H           4.9694    0.3467    0.3563 H       1  UNL1        0.0322
     14 H           6.1196    0.1820   -0.9487 H       1  UNL1        0.0322
     15 H           6.1196   -0.9687    0.3662 H       1  UNL1        0.0322
@<TRIPOS>BOND
     1     1     2    1
     2     2     3    1
     3     3     4   am
     4     4     5    1
     5     4     6    2
     6     1     7    1
     7     1     8    1
     8     1     9    1
     9     2    10    1
    10     2    11    1
    11     3    12    1
    12     5    13    1
    13     5    14    1
    14     5    15    1
