@<TRIPOS>MOLECULE
*****
 24 23 0 0 0
SMALL
GASTEIGER

@<TRIPOS>ATOM
      1 C           1.0252    0.0597    0.0762 C.3     1  UNL1       -0.0653
      2 C           2.5452    0.0597    0.0762 C.3     1  UNL1       -0.0559
      3 C           3.0519    0.0531    1.5093 C.3     1  UNL1       -0.0533
      4 C           4.5719    0.0531    1.5093 C.3     1  UNL1       -0.0517
      5 C           5.0785    0.0466    2.9423 C.3     1  UNL1       -0.0374
      6 C           6.5985    0.0466    2.9423 C.3     1  UNL1        0.0113
      7 N           7.0885    0.0403    4.3282 N.am    1  UNL1       -0.3179
      8 C           8.5338    0.0391    4.5968 C.2     1  UNL1        0.1999
      9 O           8.9574    0.0336    5.7950 O.2     1  UNL1       -0.2795
     10 H           0.6685    0.0642   -0.9326 H       1  UNL1        0.0230
     11 H           0.6685    0.9310    0.5846 H       1  UNL1        0.0230
     12 H           0.6685   -0.8163    0.5766 H       1  UNL1        0.0230
     13 H           2.9019    0.9356   -0.4242 H       1  UNL1        0.0263
     14 H           2.9019   -0.8117   -0.4322 H       1  UNL1        0.0263
     15 H           2.6952   -0.8228    2.0097 H       1  UNL1        0.0265
     16 H           2.6952    0.9245    2.0176 H       1  UNL1        0.0265
     17 H           4.9285    0.9291    1.0088 H       1  UNL1        0.0266
     18 H           4.9285   -0.8182    1.0009 H       1  UNL1        0.0266
     19 H           4.7219   -0.8293    3.4427 H       1  UNL1        0.0280
     20 H           4.7218    0.9180    3.4507 H       1  UNL1        0.0280
     21 H           6.9552    0.9226    2.4419 H       1  UNL1        0.0462
     22 H           6.9552   -0.8247    2.4339 H       1  UNL1        0.0462
     23 H           6.4488    0.0369    5.0765 H       1  UNL1        0.1484
     24 H           9.2044    0.0427    3.8125 H       1  UNL1        0.1251
@<TRIPOS>BOND
     1     1     2    1
     2     2     3    1
     3     3     4    1
     4     4     5    1
     5     5     6    1
     6     6     7    1
     7     7     8   am
     8     8     9    2
     9     1    10    1
    10     1    11    1
    11     1    12    1
    12     2    13    1
    13     2    14    1
    14     3    15    1
    15     3    16    1
    16     4    17    1
    17     4    18    1
    18     5    19    1
    19     5    20    1
    20     6    21    1
    21     6    22    1
    22     7    23    1
    23     8    24    1
