@<TRIPOS>MOLECULE
*****
 46 46 0 0 0
SMALL
GASTEIGER

@<TRIPOS>ATOM
      1 N           0.9420   -0.0282   -0.0764 N.3     1  UNL1       -0.3279
      2 C           2.4120   -0.0282   -0.0764 C.3     1  UNL1        0.0166
      3 C           2.9187    0.5871   -1.3707 C.3     1  UNL1        0.0600
      4 O           4.3387    0.5871   -1.3707 O.3     1  UNL1       -0.3763
      5 C           4.8120    1.1619   -2.5798 C.3     1  UNL1        0.0711
      6 C           6.3320    1.1619   -2.5798 C.3     1  UNL1        0.0711
      7 O           6.8053    1.7368   -3.7889 O.3     1  UNL1       -0.3757
      8 C           8.2253    1.7368   -3.7889 C.3     1  UNL1        0.0673
      9 C           8.7320    2.3521   -5.0831 C.3     1  UNL1        0.0665
     10 N          10.2020    2.3521   -5.0831 N.ar    1  UNL1       -0.2492
     11 C          10.8984    2.8700   -6.1725 C.ar    1  UNL1        0.0487
     12 C          12.3386    2.8700   -6.1725 C.ar    1  UNL1        0.0828
     13 C          13.0986    2.3048   -4.9837 C.3     1  UNL1       -0.0071
     14 C          12.1108    1.8088   -3.9403 C.3     1  UNL1       -0.0475
     15 C          12.8708    1.2436   -2.7514 C.3     1  UNL1       -0.0506
     16 C          11.8831    0.7475   -1.7080 C.3     1  UNL1       -0.0297
     17 C          12.6431    0.1823   -0.5192 C.3     1  UNL1        0.0442
     18 O          11.7203   -0.2811    0.4556 O.3     1  UNL1       -0.3950
     19 N          13.0350    3.3879   -7.2619 N.ar    1  UNL1       -0.1345
     20 N          10.8747    1.8518   -4.0308 N.ar    1  UNL1       -0.0654
     21 H           0.6020   -0.4411    0.7921 H       1  UNL1        0.1183
     22 H           0.6020   -0.5739   -0.8683 H       1  UNL1        0.1183
     23 H           2.7687   -1.0338    0.0040 H       1  UNL1        0.0444
     24 H           2.7687    0.5442    0.7542 H       1  UNL1        0.0444
     25 H           2.5620    1.5927   -1.4511 H       1  UNL1        0.0572
     26 H           2.5620    0.0147   -2.2013 H       1  UNL1        0.0572
     27 H           4.4553    2.1675   -2.6602 H       1  UNL1        0.0583
     28 H           4.4553    0.5895   -3.4104 H       1  UNL1        0.0583
     29 H           6.6887    0.1564   -2.4994 H       1  UNL1        0.0583
     30 H           6.6887    1.7344   -1.7491 H       1  UNL1        0.0583
     31 H           8.5820    0.7312   -3.7085 H       1  UNL1        0.0578
     32 H           8.5820    2.3092   -2.9582 H       1  UNL1        0.0578
     33 H           8.3753    3.3577   -5.1635 H       1  UNL1        0.0532
     34 H           8.3753    1.7797   -5.9138 H       1  UNL1        0.0532
     35 H          10.3824    3.2538   -6.9797 H       1  UNL1        0.0845
     36 H          13.7138    3.0695   -4.5573 H       1  UNL1        0.0329
     37 H          13.7138    1.4915   -5.3076 H       1  UNL1        0.0329
     38 H          11.4957    1.0441   -4.3666 H       1  UNL1        0.0269
     39 H          11.4957    2.6221   -3.6163 H       1  UNL1        0.0269
     40 H          13.4860    2.0082   -2.3251 H       1  UNL1        0.0266
     41 H          13.4860    0.4302   -3.0753 H       1  UNL1        0.0266
     42 H          11.2679   -0.0172   -2.1343 H       1  UNL1        0.0287
     43 H          11.2679    1.5608   -1.3841 H       1  UNL1        0.0287
     44 H          13.2583    0.9470   -0.0929 H       1  UNL1        0.0557
     45 H          13.2583   -0.6311   -0.8431 H       1  UNL1        0.0557
     46 H          11.1627    0.4562    0.7492 H       1  UNL1        0.2094
@<TRIPOS>BOND
     1     1     2    1
     2     2     3    1
     3     3     4    1
     4     4     5    1
     5     5     6    1
     6     6     7    1
     7     7     8    1
     8     8     9    1
     9     9    10    1
    10    10    11   ar
    11    11    12   ar
    12    12    13    1
    13    13    14    1
    14    14    15    1
    15    15    16    1
    16    16    17    1
    17    17    18    1
    18    12    19   ar
    19    19    20   ar
    20    10    20   ar
    21     1    21    1
    22     1    22    1
    23     2    23    1
    24     2    24    1
    25     3    25    1
    26     3    26    1
    27     5    27    1
    28     5    28    1
    29     6    29    1
    30     6    30    1
    31     8    31    1
    32     8    32    1
    33     9    33    1
    34     9    34    1
    35    11    35    1
    36    13    36    1
    37    13    37    1
    38    14    38    1
    39    14    39    1
    40    15    40    1
    41    15    41    1
    42    16    42    1
    43    16    43    1
    44    17    44    1
    45    17    45    1
    46    18    46    1
