@<TRIPOS>MOLECULE
*****
 36 35 0 0 0
SMALL
GASTEIGER

@<TRIPOS>ATOM
      1 C           1.0306   -0.0934   -0.0185 C.3     1  UNL1       -0.0653
      2 C           2.5506   -0.0934   -0.0185 C.3     1  UNL1       -0.0559
      3 C           3.0573   -1.0978    1.0037 C.3     1  UNL1       -0.0533
      4 C           4.5773   -1.0978    1.0037 C.3     1  UNL1       -0.0526
      5 C           5.0840   -2.1021    2.0259 C.3     1  UNL1       -0.0448
      6 C           6.6040   -2.1021    2.0259 C.3     1  UNL1        0.0242
      7 C           7.1106   -3.1065    3.0481 C.2     1  UNL1        0.2155
      8 O           6.2848   -3.7836    3.7371 O.2     1  UNL1       -0.2756
      9 N           8.5559   -3.2948    3.2397 N.am    1  UNL1       -0.3020
     10 C           9.5111   -2.5117    2.4427 C.3     1  UNL1        0.0118
     11 C           8.7511   -1.5891    1.5038 C.3     1  UNL1       -0.0493
     12 C           9.0459   -4.2662    4.2283 C.3     1  UNL1        0.0118
     13 C          10.5659   -4.2662    4.2283 C.3     1  UNL1       -0.0493
     14 H           0.6740    0.6137   -0.7381 H       1  UNL1        0.0230
     15 H           0.6740    0.1763    0.9536 H       1  UNL1        0.0230
     16 H           0.6740   -1.0701   -0.2710 H       1  UNL1        0.0230
     17 H           2.9073    0.8833    0.2340 H       1  UNL1        0.0263
     18 H           2.9073   -0.3630   -0.9906 H       1  UNL1        0.0263
     19 H           2.7006   -2.0744    0.7512 H       1  UNL1        0.0265
     20 H           2.7006   -0.8281    1.9758 H       1  UNL1        0.0265
     21 H           4.9340   -0.1211    1.2562 H       1  UNL1        0.0265
     22 H           4.9340   -1.3674    0.0316 H       1  UNL1        0.0265
     23 H           4.7273   -3.0788    1.7734 H       1  UNL1        0.0270
     24 H           4.7273   -1.8325    2.9980 H       1  UNL1        0.0270
     25 H           6.9606   -1.1255    2.2784 H       1  UNL1        0.0358
     26 H           6.9606   -2.3718    1.0538 H       1  UNL1        0.0358
     27 H          10.1263   -3.1746    1.8708 H       1  UNL1        0.0462
     28 H          10.1263   -1.9283    3.0955 H       1  UNL1        0.0462
     29 H           8.1360   -2.1726    0.8510 H       1  UNL1        0.0245
     30 H           9.4464   -1.0191    0.9237 H       1  UNL1        0.0245
     31 H           8.1360   -0.9262    2.0757 H       1  UNL1        0.0245
     32 H           8.6892   -5.2428    3.9758 H       1  UNL1        0.0462
     33 H           8.6892   -3.9965    5.2004 H       1  UNL1        0.0462
     34 H          10.9225   -4.5358    3.2562 H       1  UNL1        0.0245
     35 H          10.9225   -4.9732    4.9478 H       1  UNL1        0.0245
     36 H          10.9225   -3.2895    4.4808 H       1  UNL1        0.0245
@<TRIPOS>BOND
     1     1     2    1
     2     2     3    1
     3     3     4    1
     4     4     5    1
     5     5     6    1
     6     6     7    1
     7     7     8    2
     8     7     9   am
     9     9    10    1
    10    10    11    1
    11     9    12    1
    12    12    13    1
    13     1    14    1
    14     1    15    1
    15     1    16    1
    16     2    17    1
    17     2    18    1
    18     3    19    1
    19     3    20    1
    20     4    21    1
    21     4    22    1
    22     5    23    1
    23     5    24    1
    24     6    25    1
    25     6    26    1
    26    10    27    1
    27    10    28    1
    28    11    29    1
    29    11    30    1
    30    11    31    1
    31    12    32    1
    32    12    33    1
    33    13    34    1
    34    13    35    1
    35    13    36    1
