@<TRIPOS>MOLECULE
*****
 33 32 0 0 0
SMALL
GASTEIGER

@<TRIPOS>ATOM
      1 C           0.9624    0.0778    0.0503 C.3     1  UNL1       -0.0653
      2 C           2.4824    0.0778    0.0503 C.3     1  UNL1       -0.0559
      3 C           2.9890   -0.5069    1.3587 C.3     1  UNL1       -0.0533
      4 C           4.5090   -0.5069    1.3587 C.3     1  UNL1       -0.0517
      5 C           5.0157   -1.0916    2.6670 C.3     1  UNL1       -0.0374
      6 C           6.5357   -1.0916    2.6670 C.3     1  UNL1        0.0116
      7 N           7.0257   -1.6571    3.9323 N.am    1  UNL1       -0.3153
      8 C           8.4709   -1.7667    4.1776 C.2     1  UNL1        0.2130
      9 O           9.2968   -1.3726    3.2957 O.2     1  UNL1       -0.2758
     10 C           8.9776   -2.3514    5.4859 C.3     1  UNL1        0.0237
     11 C          10.4976   -2.3514    5.4859 C.3     1  UNL1       -0.0476
     12 C          11.0042   -2.9362    6.7943 C.3     1  UNL1       -0.0648
     13 H           0.6057    0.4894   -0.8707 H       1  UNL1        0.0230
     14 H           0.6057    0.6696    0.8673 H       1  UNL1        0.0230
     15 H           0.6057   -0.9256    0.1543 H       1  UNL1        0.0230
     16 H           2.8390    1.0812   -0.0537 H       1  UNL1        0.0263
     17 H           2.8390   -0.5140   -0.7667 H       1  UNL1        0.0263
     18 H           2.6323   -1.5103    1.4627 H       1  UNL1        0.0265
     19 H           2.6323    0.0849    2.1756 H       1  UNL1        0.0265
     20 H           4.8657    0.4965    1.2546 H       1  UNL1        0.0266
     21 H           4.8657   -1.0987    0.5417 H       1  UNL1        0.0266
     22 H           4.6590   -2.0951    2.7711 H       1  UNL1        0.0280
     23 H           4.6590   -0.4998    3.4840 H       1  UNL1        0.0280
     24 H           6.8923   -0.0882    2.5630 H       1  UNL1        0.0462
     25 H           6.8923   -1.6835    1.8500 H       1  UNL1        0.0462
     26 H           6.3859   -1.9624    4.6155 H       1  UNL1        0.1487
     27 H           8.6209   -3.3549    5.5900 H       1  UNL1        0.0358
     28 H           8.6209   -1.7596    6.3029 H       1  UNL1        0.0358
     29 H          10.8542   -1.3480    5.3819 H       1  UNL1        0.0267
     30 H          10.8542   -2.9433    4.6690 H       1  UNL1        0.0267
     31 H          10.6476   -2.3443    7.6113 H       1  UNL1        0.0230
     32 H          12.0742   -2.9362    6.7943 H       1  UNL1        0.0230
     33 H          10.6476   -3.9396    6.8983 H       1  UNL1        0.0230
@<TRIPOS>BOND
     1     1     2    1
     2     2     3    1
     3     3     4    1
     4     4     5    1
     5     5     6    1
     6     6     7    1
     7     7     8   am
     8     8     9    2
     9     8    10    1
    10    10    11    1
    11    11    12    1
    12     1    13    1
    13     1    14    1
    14     1    15    1
    15     2    16    1
    16     2    17    1
    17     3    18    1
    18     3    19    1
    19     4    20    1
    20     4    21    1
    21     5    22    1
    22     5    23    1
    23     6    24    1
    24     6    25    1
    25     7    26    1
    26    10    27    1
    27    10    28    1
    28    11    29    1
    29    11    30    1
    30    12    31    1
    31    12    32    1
    32    12    33    1
