@<TRIPOS>MOLECULE
*****
 23 22 0 0 0
SMALL
GASTEIGER

@<TRIPOS>ATOM
      1 C           1.0790    0.0509    0.0342 C.3     1  UNL1       -0.0653
      2 C           2.5990    0.0509    0.0342 C.3     1  UNL1       -0.0559
      3 C           3.1056    1.0909   -0.9518 C.3     1  UNL1       -0.0533
      4 C           4.6256    1.0909   -0.9518 C.3     1  UNL1       -0.0531
      5 C           5.1323    2.1309   -1.9377 C.3     1  UNL1       -0.0533
      6 C           6.6523    2.1309   -1.9377 C.3     1  UNL1       -0.0559
      7 C           7.1590    3.1709   -2.9236 C.3     1  UNL1       -0.0653
      8 H           0.7223   -0.6812    0.7282 H       1  UNL1        0.0230
      9 H           0.7223   -0.1841   -0.9469 H       1  UNL1        0.0230
     10 H           0.7223    1.0180    0.3212 H       1  UNL1        0.0230
     11 H           2.9557   -0.9162   -0.2528 H       1  UNL1        0.0263
     12 H           2.9557    0.2859    1.0152 H       1  UNL1        0.0263
     13 H           2.7490    2.0580   -0.6648 H       1  UNL1        0.0265
     14 H           2.7490    0.8559   -1.9328 H       1  UNL1        0.0265
     15 H           4.9823    0.1238   -1.2388 H       1  UNL1        0.0265
     16 H           4.9823    1.3259    0.0293 H       1  UNL1        0.0265
     17 H           4.7756    3.0980   -1.6507 H       1  UNL1        0.0265
     18 H           4.7756    1.8959   -2.9187 H       1  UNL1        0.0265
     19 H           7.0090    1.1638   -2.2247 H       1  UNL1        0.0263
     20 H           7.0090    2.3659   -0.9566 H       1  UNL1        0.0263
     21 H           6.8023    2.9359   -3.9047 H       1  UNL1        0.0230
     22 H           8.2290    3.1709   -2.9236 H       1  UNL1        0.0230
     23 H           6.8023    4.1381   -2.6366 H       1  UNL1        0.0230
@<TRIPOS>BOND
     1     1     2    1
     2     2     3    1
     3     3     4    1
     4     4     5    1
     5     5     6    1
     6     6     7    1
     7     1     8    1
     8     1     9    1
     9     1    10    1
    10     2    11    1
    11     2    12    1
    12     3    13    1
    13     3    14    1
    14     4    15    1
    15     4    16    1
    16     5    17    1
    17     5    18    1
    18     6    19    1
    19     6    20    1
    20     7    21    1
    21     7    22    1
    22     7    23    1
