@<TRIPOS>MOLECULE
*****
 21 20 0 0 0
SMALL
GASTEIGER

@<TRIPOS>ATOM
      1 C           0.9328    0.0246    0.0699 C.3     1  UNL1       -0.0653
      2 C           2.4528    0.0246    0.0699 C.3     1  UNL1       -0.0559
      3 C           2.9595    0.8928    1.2100 C.3     1  UNL1       -0.0529
      4 C           4.4795    0.8928    1.2100 C.3     1  UNL1       -0.0448
      5 C           4.9861    1.7610    2.3502 C.3     1  UNL1        0.0237
      6 C           6.5061    1.7610    2.3502 C.2     1  UNL1        0.2105
      7 N           7.2411    0.9897    1.3373 N.am    1  UNL1       -0.3293
      8 O           7.1416    2.4277    3.2258 O.2     1  UNL1       -0.2760
      9 H           0.5761   -0.5866   -0.7328 H       1  UNL1        0.0230
     10 H           0.5761    1.0253   -0.0581 H       1  UNL1        0.0230
     11 H           0.5761   -0.3649    1.0004 H       1  UNL1        0.0230
     12 H           2.8095    0.4141   -0.8607 H       1  UNL1        0.0263
     13 H           2.8095   -0.9761    0.1978 H       1  UNL1        0.0263
     14 H           2.6028    0.5033    2.1406 H       1  UNL1        0.0265
     15 H           2.6028    1.8934    1.0821 H       1  UNL1        0.0265
     16 H           4.8361    1.2823    0.2794 H       1  UNL1        0.0270
     17 H           4.8361   -0.1079    1.3380 H       1  UNL1        0.0270
     18 H           4.6295    1.3714    3.2808 H       1  UNL1        0.0358
     19 H           4.6295    2.7616    2.2222 H       1  UNL1        0.0358
     20 H           6.7489    0.4732    0.6590 H       1  UNL1        0.1449
     21 H           8.2256    0.9897    1.3373 H       1  UNL1        0.1449
@<TRIPOS>BOND
     1     1     2    1
     2     2     3    1
     3     3     4    1
     4     4     5    1
     5     5     6    1
     6     6     7   am
     7     6     8    2
     8     1     9    1
     9     1    10    1
    10     1    11    1
    11     2    12    1
    12     2    13    1
    13     3    14    1
    14     3    15    1
    15     4    16    1
    16     4    17    1
    17     5    18    1
    18     5    19    1
    19     7    20    1
    20     7    21    1
