@<TRIPOS>MOLECULE
*****
 38 37 0 0 0
SMALL
GASTEIGER

@<TRIPOS>ATOM
      1 C           0.9199    0.0230   -0.0552 C.3     1  UNL1       -0.0653
      2 C           2.4399    0.0230   -0.0552 C.3     1  UNL1       -0.0559
      3 C           2.9465    1.3381   -0.6247 C.3     1  UNL1       -0.0533
      4 C           4.4665    1.3381   -0.6247 C.3     1  UNL1       -0.0531
      5 C           4.9732    2.6531   -1.1942 C.3     1  UNL1       -0.0531
      6 C           6.4932    2.6531   -1.1942 C.3     1  UNL1       -0.0530
      7 C           6.9998    3.9682   -1.7637 C.3     1  UNL1       -0.0516
      8 C           8.5198    3.9682   -1.7637 C.3     1  UNL1       -0.0374
      9 C           9.0265    5.2832   -2.3332 C.3     1  UNL1        0.0116
     10 N          10.4965    5.2832   -2.3332 N.am    1  UNL1       -0.3150
     11 C          11.2315    6.4515   -2.8391 C.2     1  UNL1        0.2199
     12 O          10.5961    7.4615   -3.2765 O.2     1  UNL1       -0.2754
     13 C          12.7515    6.4515   -2.8391 C.3     1  UNL1        0.0793
     14 C          13.2582    7.7665   -3.4086 C.2     1  UNL1        0.1290
     15 O          14.5077    7.9796   -3.5009 O.2     1  UNL1       -0.3005
     16 H           0.5632   -0.9027    0.3457 H       1  UNL1        0.0230
     17 H           0.5632    0.1387   -1.0574 H       1  UNL1        0.0230
     18 H           0.5632    0.8331    0.5460 H       1  UNL1        0.0230
     19 H           2.7965   -0.7870   -0.6565 H       1  UNL1        0.0263
     20 H           2.7965   -0.0927    0.9469 H       1  UNL1        0.0263
     21 H           2.5899    2.1481   -0.0235 H       1  UNL1        0.0265
     22 H           2.5899    1.4538   -1.6269 H       1  UNL1        0.0265
     23 H           4.8232    0.5280   -1.2260 H       1  UNL1        0.0265
     24 H           4.8232    1.2224    0.3774 H       1  UNL1        0.0265
     25 H           4.6165    3.4632   -0.5929 H       1  UNL1        0.0265
     26 H           4.6165    2.7688   -2.1964 H       1  UNL1        0.0265
     27 H           6.8499    1.8431   -1.7955 H       1  UNL1        0.0265
     28 H           6.8499    2.5375   -0.1921 H       1  UNL1        0.0265
     29 H           6.6432    4.7782   -1.1624 H       1  UNL1        0.0266
     30 H           6.6432    4.0839   -2.7659 H       1  UNL1        0.0266
     31 H           8.8765    3.1581   -2.3650 H       1  UNL1        0.0280
     32 H           8.8765    3.8525   -0.7615 H       1  UNL1        0.0280
     33 H           8.6698    6.0933   -1.7319 H       1  UNL1        0.0462
     34 H           8.6698    5.3989   -3.3353 H       1  UNL1        0.0462
     35 H          10.9888    4.5009   -1.9944 H       1  UNL1        0.1487
     36 H          13.1082    5.6414   -3.4404 H       1  UNL1        0.0433
     37 H          13.1082    6.3358   -1.8370 H       1  UNL1        0.0433
     38 H          12.5875    8.4863   -3.7203 H       1  UNL1        0.1031
@<TRIPOS>BOND
     1     1     2    1
     2     2     3    1
     3     3     4    1
     4     4     5    1
     5     5     6    1
     6     6     7    1
     7     7     8    1
     8     8     9    1
     9     9    10    1
    10    10    11   am
    11    11    12    2
    12    11    13    1
    13    13    14    1
    14    14    15    2
    15     1    16    1
    16     1    17    1
    17     1    18    1
    18     2    19    1
    19     2    20    1
    20     3    21    1
    21     3    22    1
    22     4    23    1
    23     4    24    1
    24     5    25    1
    25     5    26    1
    26     6    27    1
    27     6    28    1
    28     7    29    1
    29     7    30    1
    30     8    31    1
    31     8    32    1
    32     9    33    1
    33     9    34    1
    34    10    35    1
    35    13    36    1
    36    13    37    1
    37    14    38    1
