@<TRIPOS>MOLECULE
*****
 23 22 0 0 0
SMALL
GASTEIGER

@<TRIPOS>ATOM
      1 C           1.0589    0.0636   -0.0499 C.3     1  UNL1       -0.0416
      2 C           2.5789    0.0636   -0.0499 C.3     1  UNL1        0.0449
      3 O           3.0522    1.1599   -0.8184 O.3     1  UNL1       -0.3778
      4 C           4.4722    1.1599   -0.8184 C.3     1  UNL1        0.0710
      5 C           4.9789    2.3333   -1.6410 C.3     1  UNL1        0.0711
      6 O           6.3989    2.3333   -1.6410 O.3     1  UNL1       -0.3752
      7 C           6.8722    3.4296   -2.4095 C.3     1  UNL1        0.0708
      8 C           8.3922    3.4296   -2.4095 C.3     1  UNL1        0.0676
      9 O           8.8655    4.5258   -3.1780 O.3     1  UNL1       -0.3927
     10 H           0.7022   -0.7624    0.5292 H       1  UNL1        0.0252
     11 H           0.7022   -0.0249   -1.0548 H       1  UNL1        0.0252
     12 H           0.7022    0.9782    0.3760 H       1  UNL1        0.0252
     13 H           2.9355   -0.8509   -0.4757 H       1  UNL1        0.0557
     14 H           2.9355    0.1521    0.9550 H       1  UNL1        0.0557
     15 H           4.8289    0.2453   -1.2442 H       1  UNL1        0.0583
     16 H           4.8289    1.2484    0.1865 H       1  UNL1        0.0583
     17 H           4.6222    3.2478   -1.2152 H       1  UNL1        0.0583
     18 H           4.6222    2.2448   -2.6459 H       1  UNL1        0.0583
     19 H           6.5155    4.3441   -1.9837 H       1  UNL1        0.0583
     20 H           6.5155    3.3411   -3.4144 H       1  UNL1        0.0583
     21 H           8.7488    2.5150   -2.8354 H       1  UNL1        0.0580
     22 H           8.7488    3.5180   -1.4046 H       1  UNL1        0.0580
     23 H           8.5422    4.4456   -4.0890 H       1  UNL1        0.2095
@<TRIPOS>BOND
     1     1     2    1
     2     2     3    1
     3     3     4    1
     4     4     5    1
     5     5     6    1
     6     6     7    1
     7     7     8    1
     8     8     9    1
     9     1    10    1
    10     1    11    1
    11     1    12    1
    12     2    13    1
    13     2    14    1
    14     4    15    1
    15     4    16    1
    16     5    17    1
    17     5    18    1
    18     7    19    1
    19     7    20    1
    20     8    21    1
    21     8    22    1
    22     9    23    1
