@<TRIPOS>MOLECULE
*****
 54 54 0 0 0
SMALL
GASTEIGER

@<TRIPOS>ATOM
      1 C           1.0158    0.0967    0.0199 C.3     1  UNL1       -0.0191
      2 C           2.5358    0.0967    0.0199 C.ar    1  UNL1        0.0798
      3 C           3.2559   -0.7481   -0.8977 C.ar    1  UNL1        0.0484
      4 N           4.6487   -0.7481   -0.8977 N.ar    1  UNL1       -0.2493
      5 C           5.3837    0.1142    0.0389 C.3     1  UNL1        0.0665
      6 C           4.3960    0.8968    0.8888 C.3     1  UNL1        0.0673
      7 O           5.1060    1.7297    1.7935 O.3     1  UNL1       -0.3757
      8 C           4.1832    2.4608    2.5875 C.3     1  UNL1        0.0711
      9 C           4.9432    3.3524    3.5559 C.3     1  UNL1        0.0711
     10 O           4.0204    4.0835    4.3499 O.3     1  UNL1       -0.3752
     11 C           4.7304    4.9165    5.2546 C.3     1  UNL1        0.0711
     12 C           3.7427    5.6990    6.1045 C.3     1  UNL1        0.0711
     13 O           4.4527    6.5320    7.0092 O.3     1  UNL1       -0.3752
     14 C           3.5299    7.2631    7.8032 C.3     1  UNL1        0.0711
     15 C           4.2899    8.1547    8.7716 C.3     1  UNL1        0.0711
     16 O           3.3672    8.8858    9.5656 O.3     1  UNL1       -0.3752
     17 C           4.0772    9.7187   10.4703 C.3     1  UNL1        0.0711
     18 C           3.0894   10.5013   11.3202 C.3     1  UNL1        0.0711
     19 O           3.7994   11.3343   12.2249 O.3     1  UNL1       -0.3763
     20 C           2.8767   12.0653   13.0189 C.3     1  UNL1        0.0600
     21 C           3.6367   12.9570   13.9873 C.3     1  UNL1        0.0166
     22 N           2.6814   13.7138   14.8092 N.3     1  UNL1       -0.3279
     23 N           5.3214   -1.5373   -1.7549 N.ar    1  UNL1       -0.0654
     24 N           3.2322    0.9138    0.9072 N.ar    1  UNL1       -0.1348
     25 H           0.6591   -0.5866   -0.7223 H       1  UNL1        0.0294
     26 H           0.6591    1.0811   -0.2008 H       1  UNL1        0.0294
     27 H           0.6591   -0.2043    0.9827 H       1  UNL1        0.0294
     28 H           2.7399   -1.3535   -1.5552 H       1  UNL1        0.0845
     29 H           5.9989    0.7953   -0.5112 H       1  UNL1        0.0532
     30 H           5.9989   -0.4901    0.6723 H       1  UNL1        0.0532
     31 H           3.7808    0.2157    1.4388 H       1  UNL1        0.0578
     32 H           3.7808    1.5011    0.2553 H       1  UNL1        0.0578
     33 H           3.5680    1.7797    3.1375 H       1  UNL1        0.0583
     34 H           3.5680    3.0651    1.9540 H       1  UNL1        0.0583
     35 H           5.5584    4.0335    3.0058 H       1  UNL1        0.0583
     36 H           5.5584    2.7481    4.1893 H       1  UNL1        0.0583
     37 H           5.3456    5.5976    4.7045 H       1  UNL1        0.0583
     38 H           5.3456    4.3122    5.8880 H       1  UNL1        0.0583
     39 H           3.1275    5.0179    6.6545 H       1  UNL1        0.0583
     40 H           3.1275    6.3033    5.4710 H       1  UNL1        0.0583
     41 H           2.9148    6.5820    8.3532 H       1  UNL1        0.0583
     42 H           2.9148    7.8674    7.1697 H       1  UNL1        0.0583
     43 H           4.9051    8.8358    8.2215 H       1  UNL1        0.0583
     44 H           4.9051    7.5504    9.4050 H       1  UNL1        0.0583
     45 H           4.6923   10.3998    9.9202 H       1  UNL1        0.0583
     46 H           4.6923    9.1144   11.1037 H       1  UNL1        0.0583
     47 H           2.4743    9.8202   11.8703 H       1  UNL1        0.0583
     48 H           2.4743   11.1056   10.6867 H       1  UNL1        0.0583
     49 H           2.2615   11.3842   13.5690 H       1  UNL1        0.0572
     50 H           2.2615   12.6697   12.3854 H       1  UNL1        0.0572
     51 H           4.2518   13.6381   13.4372 H       1  UNL1        0.0444
     52 H           4.2518   12.3526   14.6207 H       1  UNL1        0.0444
     53 H           2.0950   14.2899   14.2054 H       1  UNL1        0.1183
     54 H           3.1914   14.3121   15.4591 H       1  UNL1        0.1183
@<TRIPOS>BOND
     1     1     2    1
     2     2     3   ar
     3     3     4   ar
     4     4     5    1
     5     5     6    1
     6     6     7    1
     7     7     8    1
     8     8     9    1
     9     9    10    1
    10    10    11    1
    11    11    12    1
    12    12    13    1
    13    13    14    1
    14    14    15    1
    15    15    16    1
    16    16    17    1
    17    17    18    1
    18    18    19    1
    19    19    20    1
    20    20    21    1
    21    21    22    1
    22     4    23   ar
    23    23    24   ar
    24     2    24   ar
    25     1    25    1
    26     1    26    1
    27     1    27    1
    28     3    28    1
    29     5    29    1
    30     5    30    1
    31     6    31    1
    32     6    32    1
    33     8    33    1
    34     8    34    1
    35     9    35    1
    36     9    36    1
    37    11    37    1
    38    11    38    1
    39    12    39    1
    40    12    40    1
    41    14    41    1
    42    14    42    1
    43    15    43    1
    44    15    44    1
    45    17    45    1
    46    17    46    1
    47    18    47    1
    48    18    48    1
    49    20    49    1
    50    20    50    1
    51    21    51    1
    52    21    52    1
    53    22    53    1
    54    22    54    1
