@<TRIPOS>MOLECULE
*****
 45 46 0 0 0
SMALL
GASTEIGER

@<TRIPOS>ATOM
      1 N           0.9938   -0.0564   -0.0823 N.3     1  UNL1       -0.3300
      2 C           2.4638   -0.0564   -0.0823 C.3     1  UNL1       -0.0069
      3 C           2.9704    0.9058    0.9796 C.3     1  UNL1       -0.0406
      4 C           4.4904    0.9058    0.9796 C.3     1  UNL1       -0.0508
      5 C           4.9971    1.8681    2.0416 C.3     1  UNL1       -0.0402
      6 C           6.5171    1.8681    2.0416 C.3     1  UNL1       -0.0010
      7 N           7.0071    2.7987    3.0686 N.3     1  UNL1       -0.2994
      8 C           8.4771    2.7987    3.0686 C.3     1  UNL1        0.0147
      9 C           8.9838    3.7609    4.1306 C.3     1  UNL1        0.0250
     10 N          10.4538    3.7609    4.1306 N.pl3   1  UNL1       -0.3275
     11 C          11.1888    2.9061    3.1872 C.ar    1  UNL1        0.0298
     12 C          10.4687    2.0686    2.2630 C.ar    1  UNL1       -0.0400
     13 C          11.1888    1.2312    1.3387 C.ar    1  UNL1       -0.0498
     14 C          10.4687    0.3937    0.4144 C.ar    1  UNL1        0.0143
     15 C           8.9487    0.3937    0.4144 C.2     1  UNL1        0.1502
     16 O           8.3132    1.1327    1.2300 O.2     1  UNL1       -0.2957
     17 C          11.1888   -0.4438   -0.5099 C.ar    1  UNL1       -0.0498
     18 C          12.6290    2.9061    3.1872 C.ar    1  UNL1       -0.0400
     19 C          11.1888    4.6157    5.0740 C.3     1  UNL1        0.0250
     20 C           6.5171    2.3745    4.3881 C.3     1  UNL1        0.0147
     21 H           0.6538   -0.7021   -0.7950 H       1  UNL1        0.1182
     22 H           0.6538    0.8836   -0.2852 H       1  UNL1        0.1182
     23 H           2.8205    0.2523   -1.0427 H       1  UNL1        0.0422
     24 H           2.8205   -1.0425    0.1305 H       1  UNL1        0.0422
     25 H           2.6138    0.5971    1.9400 H       1  UNL1        0.0277
     26 H           2.6138    1.8919    0.7668 H       1  UNL1        0.0277
     27 H           4.8471    1.2146    0.0192 H       1  UNL1        0.0266
     28 H           4.8471   -0.0803    1.1925 H       1  UNL1        0.0266
     29 H           4.6404    1.5593    3.0020 H       1  UNL1        0.0278
     30 H           4.6404    2.8542    1.8288 H       1  UNL1        0.0278
     31 H           6.8738    2.1768    1.0812 H       1  UNL1        0.0426
     32 H           6.8738    0.8820    2.2544 H       1  UNL1        0.0426
     33 H           8.8338    3.1074    2.1082 H       1  UNL1        0.0442
     34 H           8.8338    1.8126    3.2815 H       1  UNL1        0.0442
     35 H           8.6271    3.4522    5.0910 H       1  UNL1        0.0476
     36 H           8.6271    4.7470    3.9178 H       1  UNL1        0.0476
     37 H           9.4367    2.0686    2.2630 H       1  UNL1        0.0636
     38 H          12.2208    1.2312    1.3387 H       1  UNL1        0.0625
     39 H           8.4327   -0.2064   -0.2479 H       1  UNL1        0.1081
     40 H          11.3136   -1.1316   -1.2690 H       1  UNL1        0.0625
     41 H          13.4537    3.3226    3.6469 H       1  UNL1        0.0636
     42 H          11.3671    5.6563    4.9004 H       1  UNL1        0.0476
     43 H          12.0395    4.6419    5.7224 H       1  UNL1        0.0476
     44 H           5.6600    2.8759    4.7867 H       1  UNL1        0.0442
     45 H           6.1718    1.4134    4.7072 H       1  UNL1        0.0442
@<TRIPOS>BOND
     1     1     2    1
     2     2     3    1
     3     3     4    1
     4     4     5    1
     5     5     6    1
     6     6     7    1
     7     7     8    1
     8     8     9    1
     9     9    10    1
    10    10    11    1
    11    11    12   ar
    12    12    13   ar
    13    13    14   ar
    14    14    15    1
    15    15    16    2
    16    14    17   ar
    17    17    18   ar
    18    11    18   ar
    19    10    19    1
    20    19    20    1
    21     7    20    1
    22     1    21    1
    23     1    22    1
    24     2    23    1
    25     2    24    1
    26     3    25    1
    27     3    26    1
    28     4    27    1
    29     4    28    1
    30     5    29    1
    31     5    30    1
    32     6    31    1
    33     6    32    1
    34     8    33    1
    35     8    34    1
    36     9    35    1
    37     9    36    1
    38    12    37    1
    39    13    38    1
    40    15    39    1
    41    17    40    1
    42    18    41    1
    43    19    42    1
    44    19    43    1
    45    20    44    1
    46    20    45    1
