@<TRIPOS>MOLECULE
*****
 21 20 0 0 0
SMALL
GASTEIGER

@<TRIPOS>ATOM
      1 C           0.9404    0.0717   -0.0361 C.3     1  UNL1        0.0486
      2 N           2.4104    0.0717   -0.0361 N.pl3   1  UNL1       -0.2341
      3 C           3.1454    0.8012   -1.0795 C.3     1  UNL1        0.0547
      4 C           2.1576    1.4632   -2.0263 C.3     1  UNL1        0.0649
      5 O           2.8676    2.1678   -3.0341 O.3     1  UNL1       -0.3784
      6 C           1.9449    2.7863   -3.9187 C.3     1  UNL1        0.0449
      7 C           2.7049    3.5406   -4.9975 C.3     1  UNL1       -0.0416
      8 N           3.1204   -0.6330    0.9717 N.2     1  UNL1       -0.0868
      9 N           4.3913   -0.6330    0.9717 N.2     1  UNL1       -0.1875
     10 H           0.5837    0.6497   -0.8629 H       1  UNL1        0.0496
     11 H           0.5837    0.4987    0.8779 H       1  UNL1        0.0496
     12 H           3.7605    0.1176   -1.6265 H       1  UNL1        0.0503
     13 H           3.7605    1.5496   -0.6253 H       1  UNL1        0.0503
     14 H           1.5425    2.1467   -1.4792 H       1  UNL1        0.0576
     15 H           1.5425    0.7147   -2.4805 H       1  UNL1        0.0576
     16 H           1.3297    3.4698   -3.3716 H       1  UNL1        0.0557
     17 H           1.3297    2.0378   -4.3728 H       1  UNL1        0.0557
     18 H           3.3200    4.2891   -4.5433 H       1  UNL1        0.0252
     19 H           2.0095    4.0066   -5.6640 H       1  UNL1        0.0252
     20 H           3.3200    2.8571   -5.5446 H       1  UNL1        0.0252
     21 H           4.8835   -1.1215    1.6705 H       1  UNL1        0.2134
@<TRIPOS>BOND
     1     1     2    1
     2     2     3    1
     3     3     4    1
     4     4     5    1
     5     5     6    1
     6     6     7    1
     7     2     8    1
     8     8     9    2
     9     1    10    1
    10     1    11    1
    11     3    12    1
    12     3    13    1
    13     4    14    1
    14     4    15    1
    15     6    16    1
    16     6    17    1
    17     7    18    1
    18     7    19    1
    19     7    20    1
    20     9    21    1
