@<TRIPOS>MOLECULE
*****
 65 69 0 0 0
SMALL
GASTEIGER

@<TRIPOS>ATOM
      1 C           0.9301   -0.0094    0.0709 C.3     1  UNL1       -0.0621
      2 C           2.4501   -0.0094    0.0709 C.3     1  UNL1       -0.0189
      3 C           2.9568   -0.4192   -1.3024 C.3     1  UNL1        0.1176
      4 O           4.3768   -0.4192   -1.3024 O.2     1  UNL1       -0.3933
      5 N           5.0618   -0.7584   -2.4393 N.2     1  UNL1       -0.0826
      6 C           6.3774   -0.7584   -2.4393 C.2     1  UNL1        0.1333
      7 C           7.1374   -1.1348   -3.7007 C.2     1  UNL1        0.0738
      8 C           6.4572   -1.4716   -4.8296 C.2     1  UNL1        0.0694
      9 C           7.2172   -1.8480   -6.0910 C.2     1  UNL1        0.2537
     10 O           8.4881   -1.8480   -6.0910 O.2     1  UNL1       -0.2695
     11 N           6.4822   -2.2120   -7.3110 N.am    1  UNL1       -0.2609
     12 C           5.0122   -2.2120   -7.3110 C.3     1  UNL1        0.0655
     13 C           4.5056   -1.8022   -5.9377 C.ar    1  UNL1        0.1004
     14 C           3.0896   -1.7270   -5.6855 C.ar    1  UNL1        0.0503
     15 N           2.6253   -1.3515   -4.4272 N.ar    1  UNL1       -0.2492
     16 C           3.5806   -1.0321   -3.3565 C.3     1  UNL1        0.0665
     17 C           4.9991   -1.1882   -3.8799 C.3     1  UNL1        0.0673
     18 O           5.9218   -0.8796   -2.8456 O.3     1  UNL1       -0.3767
     19 C           7.2470   -1.0255   -3.3345 C.3     1  UNL1        0.0600
     20 C           8.2348   -0.6952   -2.2274 C.3     1  UNL1        0.0166
     21 N           9.6066   -0.8462   -2.7336 N.3     1  UNL1       -0.3279
     22 N           1.3025   -1.2812   -4.1916 N.ar    1  UNL1       -0.0653
     23 N           5.4107   -1.4995   -4.9233 N.ar    1  UNL1       -0.1329
     24 C           7.2172   -2.5760   -8.5309 C.ar    1  UNL1        0.0449
     25 C           6.4971   -2.9326   -9.7261 C.ar    1  UNL1       -0.0397
     26 C           7.2172   -3.2892  -10.9212 C.ar    1  UNL1       -0.0600
     27 C           6.4971   -3.6458  -12.1164 C.ar    1  UNL1       -0.0611
     28 C           7.2172   -4.0024  -13.3116 C.ar    1  UNL1       -0.0520
     29 C           4.9372   -1.4716   -4.8296 C.ar    1  UNL1        0.0104
     30 N           8.6074   -1.1348   -3.7007 N.pl3   1  UNL1       -0.3116
     31 C           9.3424   -1.4988   -4.9206 C.ar    1  UNL1        0.0408
     32 C          10.7826   -1.4988   -4.9206 C.ar    1  UNL1       -0.0399
     33 C          11.5027   -1.8554   -6.1158 C.ar    1  UNL1       -0.0600
     34 C          12.9429   -1.8554   -6.1158 C.ar    1  UNL1       -0.0610
     35 C          13.6630   -2.2120   -7.3110 C.ar    1  UNL1       -0.0506
     36 C           7.1374   -0.3820   -1.1779 C.ar    1  UNL1        0.0265
     37 H           0.5734    0.2790    1.0376 H       1  UNL1        0.0231
     38 H           0.5734   -0.9908   -0.1627 H       1  UNL1        0.0231
     39 H           0.5734    0.6835   -0.6622 H       1  UNL1        0.0231
     40 H           2.8068   -0.7024    0.8040 H       1  UNL1        0.0296
     41 H           2.8068    0.9720    0.3044 H       1  UNL1        0.0296
     42 H           2.6001    0.2738   -2.0355 H       1  UNL1        0.0723
     43 H           2.6001   -1.4006   -1.5359 H       1  UNL1        0.0723
     44 H           4.6555   -3.1934   -7.5445 H       1  UNL1        0.0534
     45 H           4.6555   -1.5190   -8.0441 H       1  UNL1        0.0534
     46 H           2.4190   -1.9513   -6.4372 H       1  UNL1        0.0846
     47 H           3.4290   -1.6980   -2.5328 H       1  UNL1        0.0532
     48 H           3.4290   -0.0237   -3.0324 H       1  UNL1        0.0532
     49 H           5.1507   -0.5223   -4.7035 H       1  UNL1        0.0578
     50 H           5.1507   -2.1966   -4.2039 H       1  UNL1        0.0578
     51 H           7.3986   -0.3596   -4.1582 H       1  UNL1        0.0572
     52 H           7.3986   -2.0339   -3.6586 H       1  UNL1        0.0572
     53 H           8.0831   -1.3611   -1.4038 H       1  UNL1        0.0444
     54 H           8.0831    0.3132   -1.9034 H       1  UNL1        0.0444
     55 H           9.7511   -1.8075   -3.0425 H       1  UNL1        0.1183
     56 H          10.2694   -0.6245   -1.9907 H       1  UNL1        0.1183
     57 H           5.4651   -2.9326   -9.7261 H       1  UNL1        0.0636
     58 H           8.2492   -3.2892  -10.9212 H       1  UNL1        0.0618
     59 H           5.4651   -3.6458  -12.1164 H       1  UNL1        0.0618
     60 H           7.6075   -4.2756  -14.2271 H       1  UNL1        0.0624
     61 H           9.0997   -0.8910   -2.8837 H       1  UNL1        0.1522
     62 H          11.2986   -1.2432   -4.0642 H       1  UNL1        0.0636
     63 H          10.9867   -2.1109   -6.9722 H       1  UNL1        0.0618
     64 H          13.4589   -1.5998   -5.2593 H       1  UNL1        0.0618
     65 H          14.2952   -2.4452   -8.0926 H       1  UNL1        0.0625
@<TRIPOS>BOND
     1     1     2    1
     2     2     3    1
     3     3     4    1
     4     4     5    1
     5     5     6    2
     6     6     7    1
     7     7     8    2
     8     8     9    1
     9     9    10    2
    10     9    11   am
    11    11    12    1
    12    12    13    1
    13    13    14   ar
    14    14    15   ar
    15    15    16    1
    16    16    17    1
    17    17    18    1
    18    18    19    1
    19    19    20    1
    20    20    21    1
    21    15    22   ar
    22    22    23   ar
    23    13    23   ar
    24    11    24    1
    25    24    25   ar
    26    25    26   ar
    27    26    27   ar
    28    27    28   ar
    29    28    29   ar
    30    24    29   ar
    31     8    29    1
    32     7    30    1
    33    30    31    1
    34    31    32   ar
    35    32    33   ar
    36    33    34   ar
    37    34    35   ar
    38    35    36   ar
    39    31    36   ar
    40     6    36    1
    41     1    37    1
    42     1    38    1
    43     1    39    1
    44     2    40    1
    45     2    41    1
    46     3    42    1
    47     3    43    1
    48    12    44    1
    49    12    45    1
    50    14    46    1
    51    16    47    1
    52    16    48    1
    53    17    49    1
    54    17    50    1
    55    19    51    1
    56    19    52    1
    57    20    53    1
    58    20    54    1
    59    21    55    1
    60    21    56    1
    61    25    57    1
    62    26    58    1
    63    27    59    1
    64    28    60    1
    65    30    61    1
    66    32    62    1
    67    33    63    1
    68    34    64    1
    69    35    65    1
