@<TRIPOS>MOLECULE
*****
 35 34 0 0 0
SMALL
GASTEIGER

@<TRIPOS>ATOM
      1 C           0.9786    0.0773   -0.0598 C.3     1  UNL1        0.0121
      2 C           2.4986    0.0773   -0.0598 C.2     1  UNL1        0.2100
      3 O           3.1340    0.0684    1.0408 O.2     1  UNL1       -0.2761
      4 N           3.2336    0.0875   -1.3328 N.am    1  UNL1       -0.3133
      5 C           4.7036    0.0875   -1.3328 C.3     1  UNL1        0.0350
      6 C           5.2102    0.0990   -2.7658 C.3     1  UNL1        0.0632
      7 O           6.6302    0.0990   -2.7658 O.3     1  UNL1       -0.3760
      8 C           7.1036    0.1097   -4.1046 C.3     1  UNL1        0.0711
      9 C           8.6236    0.1097   -4.1046 C.3     1  UNL1        0.0711
     10 O           9.0969    0.1205   -5.4433 O.3     1  UNL1       -0.3752
     11 C          10.5169    0.1205   -5.4433 C.3     1  UNL1        0.0711
     12 C          11.0236    0.1320   -6.8763 C.3     1  UNL1        0.0715
     13 O          12.4436    0.1320   -6.8763 O.3     1  UNL1       -0.3703
     14 C          12.9169    0.1427   -8.2151 C.3     1  UNL1        0.1028
     15 C          14.4369    0.1427   -8.2151 C.2     1  UNL1        0.1458
     16 O          15.0723    0.1515   -9.3157 O.2     1  UNL1       -0.2986
     17 H           0.6219    0.0692    0.9490 H       1  UNL1        0.0322
     18 H           0.6219   -0.7923   -0.5712 H       1  UNL1        0.0322
     19 H           0.6219    0.9549   -0.5572 H       1  UNL1        0.0322
     20 H           2.7413    0.0943   -2.1854 H       1  UNL1        0.1488
     21 H           5.0603   -0.7902   -0.8354 H       1  UNL1        0.0484
     22 H           5.0603    0.9570   -0.8214 H       1  UNL1        0.0484
     23 H           4.8536    0.9766   -3.2632 H       1  UNL1        0.0575
     24 H           4.8536   -0.7706   -3.2772 H       1  UNL1        0.0575
     25 H           6.7469    0.9874   -4.6019 H       1  UNL1        0.0583
     26 H           6.7469   -0.7599   -4.6160 H       1  UNL1        0.0583
     27 H           8.9802   -0.7680   -3.6072 H       1  UNL1        0.0583
     28 H           8.9802    0.9793   -3.5932 H       1  UNL1        0.0583
     29 H          10.8736   -0.7572   -4.9459 H       1  UNL1        0.0583
     30 H          10.8736    0.9900   -4.9319 H       1  UNL1        0.0583
     31 H          10.6669    1.0096   -7.3737 H       1  UNL1        0.0583
     32 H          10.6669   -0.7376   -7.3877 H       1  UNL1        0.0583
     33 H          12.5602    1.0204   -8.7125 H       1  UNL1        0.0636
     34 H          12.5602   -0.7269   -8.7265 H       1  UNL1        0.0636
     35 H          14.9529    0.1355   -7.3214 H       1  UNL1        0.1051
@<TRIPOS>BOND
     1     1     2    1
     2     2     3    2
     3     2     4   am
     4     4     5    1
     5     5     6    1
     6     6     7    1
     7     7     8    1
     8     8     9    1
     9     9    10    1
    10    10    11    1
    11    11    12    1
    12    12    13    1
    13    13    14    1
    14    14    15    1
    15    15    16    2
    16     1    17    1
    17     1    18    1
    18     1    19    1
    19     4    20    1
    20     5    21    1
    21     5    22    1
    22     6    23    1
    23     6    24    1
    24     8    25    1
    25     8    26    1
    26     9    27    1
    27     9    28    1
    28    11    29    1
    29    11    30    1
    30    12    31    1
    31    12    32    1
    32    14    33    1
    33    14    34    1
    34    15    35    1
