@<TRIPOS>MOLECULE
*****
 11 10 0 0 0
SMALL
GASTEIGER

@<TRIPOS>ATOM
      1 N           0.9291   -0.0560   -0.0429 N.3     1  GLY1       -0.3279
      2 CA          2.3991   -0.0560   -0.0429 C.3     1  GLY1        0.0164
      3 C           2.9058    1.2506   -0.6315 C.3     1  GLY1        0.0565
      4 O           4.3258    1.2506   -0.6315 O.3     1  GLY1       -0.3938
      5 H1          0.5891   -0.9328    0.3521 H       1  GLY1        0.1183
      6 H2          0.5891    0.0404   -0.9997 H       1  GLY1        0.1183
      7 HA1         2.7558   -0.8747   -0.6323 H       1  GLY1        0.0444
      8 HA2         2.7558   -0.1571    0.9608 H       1  GLY1        0.0444
      9 H1          2.5491    2.0693   -0.0420 H       1  GLY1        0.0570
     10 H2          2.5491    1.3517   -1.6352 H       1  GLY1        0.0570
     11 H           4.6491    1.1590    0.2785 H       1  GLY1        0.2095
@<TRIPOS>BOND
     1     1     2    1
     2     2     3    1
     3     3     4    1
     4     1     5    1
     5     1     6    1
     6     2     7    1
     7     2     8    1
     8     3     9    1
     9     3    10    1
    10     4    11    1
