@<TRIPOS>MOLECULE
*****
 13 12 0 0 0
SMALL
GASTEIGER

@<TRIPOS>ATOM
      1 C           1.0903    0.0429    0.0003 C.3     1  UNL1        0.0365
      2 O           2.5103    0.0429    0.0003 O.3     1  UNL1       -0.3807
      3 C           2.9836    1.0589   -0.8716 C.3     1  UNL1        0.0704
      4 C           4.5036    1.0589   -0.8716 C.3     1  UNL1        0.0675
      5 O           4.9770    2.0749   -1.7435 O.3     1  UNL1       -0.3927
      6 H           0.7336   -0.7226    0.6573 H       1  UNL1        0.0524
      7 H           0.7336   -0.1432   -0.9912 H       1  UNL1        0.0524
      8 H           0.7336    0.9947    0.3348 H       1  UNL1        0.0524
      9 H           2.6270    2.0106   -0.5371 H       1  UNL1        0.0582
     10 H           2.6270    0.8727   -1.8631 H       1  UNL1        0.0582
     11 H           4.8603    0.1072   -1.2061 H       1  UNL1        0.0580
     12 H           4.8603    1.2451    0.1199 H       1  UNL1        0.0580
     13 H           4.6536    1.9061   -2.6423 H       1  UNL1        0.2095
@<TRIPOS>BOND
     1     1     2    1
     2     2     3    1
     3     3     4    1
     4     4     5    1
     5     1     6    1
     6     1     7    1
     7     1     8    1
     8     3     9    1
     9     3    10    1
    10     4    11    1
    11     4    12    1
    12     5    13    1
