@<TRIPOS>MOLECULE
*****
 41 40 0 0 0
SMALL
GASTEIGER

@<TRIPOS>ATOM
      1 C           0.9401   -0.0213    0.0772 C.3     1  UNL1       -0.0653
      2 C           2.4601   -0.0213    0.0772 C.3     1  UNL1       -0.0559
      3 C           2.9668   -1.4535    0.0272 C.3     1  UNL1       -0.0533
      4 C           4.4868   -1.4535    0.0272 C.3     1  UNL1       -0.0531
      5 C           4.9935   -2.8857   -0.0227 C.3     1  UNL1       -0.0531
      6 C           6.5135   -2.8857   -0.0227 C.3     1  UNL1       -0.0531
      7 C           7.0201   -4.3179   -0.0727 C.3     1  UNL1       -0.0530
      8 C           8.5401   -4.3179   -0.0727 C.3     1  UNL1       -0.0516
      9 C           9.0468   -5.7501   -0.1227 C.3     1  UNL1       -0.0374
     10 C          10.5668   -5.7501   -0.1227 C.3     1  UNL1        0.0116
     11 N          11.0568   -7.1352   -0.1710 N.am    1  UNL1       -0.3150
     12 C          12.5020   -7.4037   -0.1804 C.2     1  UNL1        0.2199
     13 O          13.3279   -6.4383   -0.1467 O.2     1  UNL1       -0.2754
     14 C          13.0087   -8.8359   -0.2304 C.3     1  UNL1        0.0793
     15 C          14.5287   -8.8359   -0.2304 C.2     1  UNL1        0.1290
     16 O          15.1641   -9.9359   -0.2687 O.2     1  UNL1       -0.3005
     17 H           0.5835    0.9868    0.1124 H       1  UNL1        0.0230
     18 H           0.5835   -0.5559    0.9327 H       1  UNL1        0.0230
     19 H           0.5835   -0.4950   -0.8135 H       1  UNL1        0.0230
     20 H           2.8168    0.4523    0.9679 H       1  UNL1        0.0263
     21 H           2.8168    0.5132   -0.7783 H       1  UNL1        0.0263
     22 H           2.6101   -1.9272   -0.8635 H       1  UNL1        0.0265
     23 H           2.6101   -1.9881    0.8828 H       1  UNL1        0.0265
     24 H           4.8435   -0.9799    0.9179 H       1  UNL1        0.0265
     25 H           4.8435   -0.9190   -0.8283 H       1  UNL1        0.0265
     26 H           4.6368   -3.3594   -0.9135 H       1  UNL1        0.0265
     27 H           4.6368   -3.4203    0.8328 H       1  UNL1        0.0265
     28 H           6.8701   -2.4121    0.8680 H       1  UNL1        0.0265
     29 H           6.8701   -2.3512   -0.8783 H       1  UNL1        0.0265
     30 H           6.6634   -4.7916   -0.9634 H       1  UNL1        0.0265
     31 H           6.6634   -4.8525    0.7828 H       1  UNL1        0.0265
     32 H           8.8968   -3.8443    0.8180 H       1  UNL1        0.0266
     33 H           8.8968   -3.7834   -0.9282 H       1  UNL1        0.0266
     34 H           8.6901   -6.2238   -1.0134 H       1  UNL1        0.0280
     35 H           8.6901   -6.2847    0.7328 H       1  UNL1        0.0280
     36 H          10.9234   -5.2765    0.7680 H       1  UNL1        0.0462
     37 H          10.9234   -5.2156   -0.9782 H       1  UNL1        0.0462
     38 H          10.4170   -7.8831   -0.1971 H       1  UNL1        0.1487
     39 H          12.6520   -9.3095   -1.1211 H       1  UNL1        0.0433
     40 H          12.6520   -9.3705    0.6252 H       1  UNL1        0.0433
     41 H          15.0447   -7.9427   -0.1992 H       1  UNL1        0.1031
@<TRIPOS>BOND
     1     1     2    1
     2     2     3    1
     3     3     4    1
     4     4     5    1
     5     5     6    1
     6     6     7    1
     7     7     8    1
     8     8     9    1
     9     9    10    1
    10    10    11    1
    11    11    12   am
    12    12    13    2
    13    12    14    1
    14    14    15    1
    15    15    16    2
    16     1    17    1
    17     1    18    1
    18     1    19    1
    19     2    20    1
    20     2    21    1
    21     3    22    1
    22     3    23    1
    23     4    24    1
    24     4    25    1
    25     5    26    1
    26     5    27    1
    27     6    28    1
    28     6    29    1
    29     7    30    1
    30     7    31    1
    31     8    32    1
    32     8    33    1
    33     9    34    1
    34     9    35    1
    35    10    36    1
    36    10    37    1
    37    11    38    1
    38    14    39    1
    39    14    40    1
    40    15    41    1
