@<TRIPOS>MOLECULE
*****
 23 22 0 0 0
SMALL
GASTEIGER

@<TRIPOS>ATOM
      1 C           1.0069    0.0926   -0.0370 C.3     1  UNL1        0.0121
      2 C           2.5269    0.0926   -0.0370 C.2     1  UNL1        0.2100
      3 O           3.1624    0.0276   -1.1357 O.2     1  UNL1       -0.2761
      4 N           3.2619    0.1679    1.2338 N.am    1  UNL1       -0.3133
      5 C           4.7319    0.1679    1.2338 C.3     1  UNL1        0.0350
      6 C           5.2386    0.2526    2.6644 C.3     1  UNL1        0.0632
      7 O           6.6586    0.2526    2.6644 O.3     1  UNL1       -0.3760
      8 C           7.1319    0.3317    4.0009 C.3     1  UNL1        0.0708
      9 C           8.6519    0.3317    4.0009 C.3     1  UNL1        0.0676
     10 O           9.1253    0.4108    5.3373 O.3     1  UNL1       -0.3927
     11 H           0.6503    0.0330   -1.0440 H       1  UNL1        0.0322
     12 H           0.6503    0.9946    0.4149 H       1  UNL1        0.0322
     13 H           0.6503   -0.7497    0.5182 H       1  UNL1        0.0322
     14 H           2.7697    0.2183    2.0850 H       1  UNL1        0.1488
     15 H           5.0886    1.0102    0.6787 H       1  UNL1        0.0484
     16 H           5.0886   -0.7340    0.7820 H       1  UNL1        0.0484
     17 H           4.8819   -0.5897    3.2196 H       1  UNL1        0.0575
     18 H           4.8819    1.1545    3.1163 H       1  UNL1        0.0575
     19 H           6.7753   -0.5106    4.5560 H       1  UNL1        0.0583
     20 H           6.7753    1.2336    4.4527 H       1  UNL1        0.0583
     21 H           9.0086    1.1740    3.4457 H       1  UNL1        0.0580
     22 H           9.0086   -0.5702    3.5490 H       1  UNL1        0.0580
     23 H           8.8019    1.2285    5.7470 H       1  UNL1        0.2095
@<TRIPOS>BOND
     1     1     2    1
     2     2     3    2
     3     2     4   am
     4     4     5    1
     5     5     6    1
     6     6     7    1
     7     7     8    1
     8     8     9    1
     9     9    10    1
    10     1    11    1
    11     1    12    1
    12     1    13    1
    13     4    14    1
    14     5    15    1
    15     5    16    1
    16     6    17    1
    17     6    18    1
    18     8    19    1
    19     8    20    1
    20     9    21    1
    21     9    22    1
    22    10    23    1
