@<TRIPOS>MOLECULE
*****
 16 15 0 0 0
SMALL
GASTEIGER

@<TRIPOS>ATOM
      1 C           1.0359   -0.0704   -0.0613 C.1     1  UNL1       -0.1192
      2 C           2.3397   -0.0704   -0.0613 C.1     1  UNL1       -0.1056
      3 C           3.8597   -0.0704   -0.0613 C.3     1  UNL1        0.0089
      4 C           4.3664   -1.0873   -1.0710 C.3     1  UNL1       -0.0424
      5 C           5.8864   -1.0873   -1.0710 C.3     1  UNL1       -0.0551
      6 C           6.3931   -2.1043   -2.0807 C.3     1  UNL1       -0.0652
      7 H           0.0419   -0.0704   -0.0613 H       1  UNL1        0.1228
      8 H           4.2164   -0.3280    0.9141 H       1  UNL1        0.0397
      9 H           4.2164    0.9031   -0.3258 H       1  UNL1        0.0397
     10 H           4.0097   -0.8297   -2.0464 H       1  UNL1        0.0274
     11 H           4.0097   -2.0608   -0.8064 H       1  UNL1        0.0274
     12 H           6.2431   -1.3450   -0.0956 H       1  UNL1        0.0263
     13 H           6.2431   -0.1139   -1.3356 H       1  UNL1        0.0263
     14 H           6.0364   -3.0778   -1.8162 H       1  UNL1        0.0230
     15 H           7.4631   -2.1043   -2.0807 H       1  UNL1        0.0230
     16 H           6.0364   -1.8467   -3.0561 H       1  UNL1        0.0230
@<TRIPOS>BOND
     1     1     2    3
     2     2     3    1
     3     3     4    1
     4     4     5    1
     5     5     6    1
     6     1     7    1
     7     3     8    1
     8     3     9    1
     9     4    10    1
    10     4    11    1
    11     5    12    1
    12     5    13    1
    13     6    14    1
    14     6    15    1
    15     6    16    1
