@<TRIPOS>MOLECULE
*****
 67 69 0 0 0
SMALL
GASTEIGER

@<TRIPOS>ATOM
      1 C           1.0938   -0.0237   -0.0253 C.3     1  UNL1       -0.0652
      2 C           2.6138   -0.0237   -0.0253 C.3     1  UNL1       -0.0545
      3 C           3.1205   -1.1077   -0.9627 C.3     1  UNL1       -0.0373
      4 C           4.6405   -1.1077   -0.9627 C.3     1  UNL1        0.0165
      5 N           5.1305   -2.1560   -1.8693 N.am    1  UNL1       -0.2811
      6 C           4.1752   -3.0011   -2.6001 C.3     1  UNL1        0.0412
      7 C           2.7567   -2.5880   -2.2429 C.ar    1  UNL1       -0.0301
      8 C           1.6365   -3.2727   -2.8350 C.ar    1  UNL1       -0.0571
      9 C           0.2925   -2.8813   -2.4965 C.ar    1  UNL1       -0.0615
     10 C          -0.8276   -3.5660   -3.0886 C.ar    1  UNL1       -0.0617
     11 C          -2.1717   -3.1746   -2.7501 C.ar    1  UNL1       -0.0615
     12 C           2.5328   -1.5119   -1.3122 C.ar    1  UNL1       -0.0571
     13 C           6.5757   -2.3592   -2.0450 C.2     1  UNL1        0.3067
     14 O           7.4016   -1.6285   -1.4131 O.2     1  UNL1       -0.2523
     15 N           7.0657   -3.4075   -2.9515 N.am    1  UNL1       -0.2693
     16 C           8.5109   -3.6107   -3.1272 C.ar    1  UNL1        0.0350
     17 C           8.9910   -4.6377   -4.0154 C.ar    1  UNL1       -0.0370
     18 C          10.4070   -4.8368   -4.1876 C.ar    1  UNL1       -0.0182
     19 C          10.8870   -5.8638   -5.0758 C.ar    1  UNL1        0.1206
     20 O           9.9643   -6.6802   -5.7818 O.3     1  UNL1       -0.4920
     21 C           8.5682   -6.4839   -5.6120 C.3     1  UNL1        0.0896
     22 C           7.8082   -7.4796   -6.4731 C.3     1  UNL1       -0.0170
     23 C           6.3138   -7.2695   -6.2914 C.3     1  UNL1       -0.0302
     24 C           5.5538   -8.2652   -7.1525 C.3     1  UNL1        0.0433
     25 N           4.1085   -8.0620   -6.9768 N.ar    1  UNL1       -0.2514
     26 C           3.2034   -8.8628   -7.6692 C.ar    1  UNL1        0.0499
     27 C           1.7875   -8.6637   -7.4971 C.ar    1  UNL1        0.0963
     28 C           1.2808   -7.5798   -6.5597 C.3     1  UNL1        0.0393
     29 N           2.4241   -6.8809   -5.9553 N.3     1  UNL1       -0.3248
     30 N           0.8823   -9.4645   -8.1896 N.ar    1  UNL1       -0.1332
     31 N           3.6600   -7.1025   -6.1470 N.ar    1  UNL1       -0.0654
     32 C          12.3030   -6.0629   -5.2479 C.ar    1  UNL1       -0.0182
     33 C           9.4468   -2.7827   -2.4112 C.ar    1  UNL1       -0.0370
     34 H           0.7371    0.7393    0.6346 H       1  UNL1        0.0230
     35 H           0.7371   -0.9767    0.3056 H       1  UNL1        0.0230
     36 H           0.7371    0.1662   -1.0161 H       1  UNL1        0.0230
     37 H           2.9705   -0.2137    0.9655 H       1  UNL1        0.0263
     38 H           2.9705    0.9293   -0.3562 H       1  UNL1        0.0263
     39 H           2.7638   -0.9177   -1.9535 H       1  UNL1        0.0280
     40 H           2.7638   -2.0607   -0.6318 H       1  UNL1        0.0280
     41 H           4.9971   -1.2976    0.0281 H       1  UNL1        0.0465
     42 H           4.9971   -0.1547   -1.2936 H       1  UNL1        0.0465
     43 H           4.3268   -4.0256   -2.3310 H       1  UNL1        0.0514
     44 H           4.3268   -2.8826   -3.6527 H       1  UNL1        0.0514
     45 H           1.7970   -4.0438   -3.5018 H       1  UNL1        0.0621
     46 H           0.1321   -2.1102   -1.8296 H       1  UNL1        0.0618
     47 H          -0.6672   -4.3371   -3.7555 H       1  UNL1        0.0618
     48 H          -3.2030   -3.2017   -2.7736 H       1  UNL1        0.0618
     49 H           3.0175   -0.8227   -0.7163 H       1  UNL1        0.0621
     50 H           6.4259   -3.9735   -3.4410 H       1  UNL1        0.1564
     51 H           8.3204   -5.2310   -4.5285 H       1  UNL1        0.0637
     52 H          11.0776   -4.2435   -3.6745 H       1  UNL1        0.0655
     53 H           8.3097   -5.4881   -5.9058 H       1  UNL1        0.0696
     54 H           8.3097   -6.6310   -4.5842 H       1  UNL1        0.0696
     55 H           8.0667   -8.4755   -6.1793 H       1  UNL1        0.0298
     56 H           8.0667   -7.3325   -7.5009 H       1  UNL1        0.0298
     57 H           6.0553   -6.2737   -6.5852 H       1  UNL1        0.0284
     58 H           6.0553   -7.4166   -5.2636 H       1  UNL1        0.0284
     59 H           5.8122   -9.2611   -6.8587 H       1  UNL1        0.0509
     60 H           5.8122   -8.1181   -8.1803 H       1  UNL1        0.0509
     61 H           3.5474   -9.5987   -8.3057 H       1  UNL1        0.0845
     62 H           0.6863   -8.0241   -5.7889 H       1  UNL1        0.0488
     63 H           0.6863   -6.8811   -7.1105 H       1  UNL1        0.0488
     64 H           2.9908   -7.5469   -5.4302 H       1  UNL1        0.1186
     65 H           2.0841   -6.1535   -5.3263 H       1  UNL1        0.1186
     66 H          13.1627   -6.4946   -5.6213 H       1  UNL1        0.0655
     67 H           9.5113   -2.0036   -1.7375 H       1  UNL1        0.0637
@<TRIPOS>BOND
     1     1     2    1
     2     2     3    1
     3     3     4    1
     4     4     5    1
     5     5     6    1
     6     6     7    1
     7     7     8   ar
     8     8     9   ar
     9     9    10   ar
    10    10    11   ar
    11    11    12   ar
    12     7    12   ar
    13     5    13   am
    14    13    14    2
    15    13    15   am
    16    15    16    1
    17    16    17   ar
    18    17    18   ar
    19    18    19   ar
    20    19    20    1
    21    20    21    1
    22    21    22    1
    23    22    23    1
    24    23    24    1
    25    24    25    1
    26    25    26   ar
    27    26    27   ar
    28    27    28    1
    29    28    29    1
    30    27    30   ar
    31    30    31   ar
    32    25    31   ar
    33    19    32   ar
    34    32    33   ar
    35    16    33   ar
    36     1    34    1
    37     1    35    1
    38     1    36    1
    39     2    37    1
    40     2    38    1
    41     3    39    1
    42     3    40    1
    43     4    41    1
    44     4    42    1
    45     6    43    1
    46     6    44    1
    47     8    45    1
    48     9    46    1
    49    10    47    1
    50    11    48    1
    51    12    49    1
    52    15    50    1
    53    17    51    1
    54    18    52    1
    55    21    53    1
    56    21    54    1
    57    22    55    1
    58    22    56    1
    59    23    57    1
    60    23    58    1
    61    24    59    1
    62    24    60    1
    63    26    61    1
    64    28    62    1
    65    28    63    1
    66    29    64    1
    67    29    65    1
    68    32    66    1
    69    33    67    1
