@<TRIPOS>MOLECULE
*****
 31 30 0 0 0
SMALL
GASTEIGER

@<TRIPOS>ATOM
      1 C           0.9584   -0.0265   -0.0870 C.3     1  UNL1       -0.0653
      2 C           2.4784   -0.0265   -0.0870 C.3     1  UNL1       -0.0559
      3 C           2.9851    1.0148   -1.0717 C.3     1  UNL1       -0.0533
      4 C           4.5051    1.0148   -1.0717 C.3     1  UNL1       -0.0531
      5 C           5.0118    2.0560   -2.0563 C.3     1  UNL1       -0.0531
      6 C           6.5318    2.0560   -2.0563 C.3     1  UNL1       -0.0530
      7 C           7.0384    3.0972   -3.0410 C.3     1  UNL1       -0.0519
      8 C           8.5584    3.0972   -3.0410 C.3     1  UNL1       -0.0406
      9 C           9.0651    4.1385   -4.0256 C.3     1  UNL1       -0.0069
     10 N          10.5351    4.1385   -4.0256 N.3     1  UNL1       -0.3300
     11 H           0.6018   -0.7594    0.6061 H       1  UNL1        0.0230
     12 H           0.6018   -0.2602   -1.0684 H       1  UNL1        0.0230
     13 H           0.6018    0.9403    0.2012 H       1  UNL1        0.0230
     14 H           2.8351   -0.9932   -0.3752 H       1  UNL1        0.0263
     15 H           2.8351    0.2073    0.8943 H       1  UNL1        0.0263
     16 H           2.6284    1.9815   -0.7835 H       1  UNL1        0.0265
     17 H           2.6284    0.7810   -2.0530 H       1  UNL1        0.0265
     18 H           4.8618    0.0480   -1.3599 H       1  UNL1        0.0265
     19 H           4.8618    1.2486   -0.0903 H       1  UNL1        0.0265
     20 H           4.6551    3.0228   -1.7681 H       1  UNL1        0.0265
     21 H           4.6551    1.8222   -3.0377 H       1  UNL1        0.0265
     22 H           6.8884    1.0893   -2.3445 H       1  UNL1        0.0265
     23 H           6.8884    2.2898   -1.0750 H       1  UNL1        0.0265
     24 H           6.6818    4.0640   -2.7528 H       1  UNL1        0.0266
     25 H           6.6818    2.8635   -4.0223 H       1  UNL1        0.0266
     26 H           8.9151    2.1305   -3.3292 H       1  UNL1        0.0277
     27 H           8.9151    3.3310   -2.0596 H       1  UNL1        0.0277
     28 H           8.7084    5.1052   -3.7374 H       1  UNL1        0.0422
     29 H           8.7084    3.9047   -5.0069 H       1  UNL1        0.0422
     30 H          10.8751    4.3613   -3.0901 H       1  UNL1        0.1182
     31 H          10.8751    4.8372   -4.6864 H       1  UNL1        0.1182
@<TRIPOS>BOND
     1     1     2    1
     2     2     3    1
     3     3     4    1
     4     4     5    1
     5     5     6    1
     6     6     7    1
     7     7     8    1
     8     8     9    1
     9     9    10    1
    10     1    11    1
    11     1    12    1
    12     1    13    1
    13     2    14    1
    14     2    15    1
    15     3    16    1
    16     3    17    1
    17     4    18    1
    18     4    19    1
    19     5    20    1
    20     5    21    1
    21     6    22    1
    22     6    23    1
    23     7    24    1
    24     7    25    1
    25     8    26    1
    26     8    27    1
    27     9    28    1
    28     9    29    1
    29    10    30    1
    30    10    31    1
