@<TRIPOS>MOLECULE
*****
 34 34 0 0 0
SMALL
GASTEIGER

@<TRIPOS>ATOM
      1 C           0.9661   -0.0620    0.0708 C.3     1  UNL1       -0.0653
      2 C           2.4861   -0.0620    0.0708 C.3     1  UNL1       -0.0556
      3 C           2.9927    1.3381    0.3767 C.3     1  UNL1       -0.0478
      4 C           4.5127    1.3381    0.3767 C.3     1  UNL1       -0.0071
      5 C           5.0194    2.7381    0.6825 C.ar    1  UNL1        0.0828
      6 C           6.4354    2.9953    0.7387 C.ar    1  UNL1        0.0486
      7 N           6.8996    4.2782    1.0190 N.ar    1  UNL1       -0.2515
      8 C           5.9444    5.3697    1.2574 C.3     1  UNL1        0.0432
      9 C           4.5259    4.8362    1.1409 C.3     1  UNL1       -0.0329
     10 C           3.5381    5.9649    1.3874 C.3     1  UNL1       -0.0450
     11 C           2.1196    5.4313    1.2709 C.3     1  UNL1        0.0028
     12 C           1.1319    6.5600    1.5175 C.2     1  UNL1        0.1203
     13 O          -0.1176    6.3331    1.4679 O.2     1  UNL1       -0.3010
     14 N           8.2224    4.5184    1.0714 N.ar    1  UNL1       -0.0655
     15 N           4.1143    3.7724    0.9085 N.ar    1  UNL1       -0.1345
     16 H           0.6094   -1.0475   -0.1445 H       1  UNL1        0.0230
     17 H           0.6094    0.6173   -0.6751 H       1  UNL1        0.0230
     18 H           0.6094    0.2444    1.0320 H       1  UNL1        0.0230
     19 H           2.8427   -0.3683   -0.8904 H       1  UNL1        0.0263
     20 H           2.8427   -0.7412    0.8167 H       1  UNL1        0.0263
     21 H           2.6361    1.6444    1.3378 H       1  UNL1        0.0269
     22 H           2.6361    2.0173   -0.3692 H       1  UNL1        0.0269
     23 H           4.8694    1.0318   -0.5845 H       1  UNL1        0.0329
     24 H           4.8694    0.6589    1.1225 H       1  UNL1        0.0329
     25 H           7.1060    2.2289    0.5713 H       1  UNL1        0.0845
     26 H           6.0960    6.1413    0.5317 H       1  UNL1        0.0509
     27 H           6.0960    5.7683    2.2388 H       1  UNL1        0.0509
     28 H           4.3743    4.0646    1.8666 H       1  UNL1        0.0283
     29 H           4.3743    4.4376    0.1595 H       1  UNL1        0.0283
     30 H           3.6897    6.7364    0.6617 H       1  UNL1        0.0270
     31 H           3.6897    6.3635    2.3688 H       1  UNL1        0.0270
     32 H           1.9680    4.6598    1.9966 H       1  UNL1        0.0339
     33 H           1.9680    5.0327    0.2895 H       1  UNL1        0.0339
     34 H           1.4759    7.5105    1.7251 H       1  UNL1        0.1026
@<TRIPOS>BOND
     1     1     2    1
     2     2     3    1
     3     3     4    1
     4     4     5    1
     5     5     6   ar
     6     6     7   ar
     7     7     8    1
     8     8     9    1
     9     9    10    1
    10    10    11    1
    11    11    12    1
    12    12    13    2
    13     7    14   ar
    14    14    15   ar
    15     5    15   ar
    16     1    16    1
    17     1    17    1
    18     1    18    1
    19     2    19    1
    20     2    20    1
    21     3    21    1
    22     3    22    1
    23     4    23    1
    24     4    24    1
    25     6    25    1
    26     8    26    1
    27     8    27    1
    28     9    28    1
    29     9    29    1
    30    10    30    1
    31    10    31    1
    32    11    32    1
    33    11    33    1
    34    12    34    1
