@<TRIPOS>MOLECULE
*****
 37 37 0 0 0
SMALL
GASTEIGER

@<TRIPOS>ATOM
      1 C           1.0479    0.0842   -0.0247 C.3     1  UNL1       -0.0416
      2 C           2.5679    0.0842   -0.0247 C.3     1  UNL1        0.0449
      3 O           3.0412   -1.0311   -0.7652 O.3     1  UNL1       -0.3778
      4 C           4.4612   -1.0311   -0.7652 C.3     1  UNL1        0.0710
      5 C           4.9679   -2.2250   -1.5579 C.3     1  UNL1        0.0711
      6 O           6.3879   -2.2250   -1.5579 O.3     1  UNL1       -0.3752
      7 C           6.8612   -3.3403   -2.2985 C.3     1  UNL1        0.0711
      8 C           8.3812   -3.3403   -2.2985 C.3     1  UNL1        0.0711
      9 O           8.8545   -4.4556   -3.0390 O.3     1  UNL1       -0.3757
     10 C          10.2745   -4.4556   -3.0390 C.3     1  UNL1        0.0673
     11 C          10.7812   -5.6495   -3.8317 C.3     1  UNL1        0.0665
     12 N          12.2512   -5.6495   -3.8317 N.ar    1  UNL1       -0.2488
     13 C          12.9476   -6.6544   -4.4989 C.ar    1  UNL1        0.0560
     14 C          14.3878   -6.6544   -4.4989 C.ar    1  UNL1        0.1444
     15 C          15.1478   -5.5578   -3.7708 C.2     1  UNL1        0.1716
     16 O          14.5124   -4.6408   -3.1620 O.2     1  UNL1       -0.2940
     17 N          15.0842   -7.6593   -5.1661 N.ar    1  UNL1       -0.1269
     18 N          12.9239   -4.6788   -3.1872 N.ar    1  UNL1       -0.0650
     19 H           0.6912    0.9247    0.5333 H       1  UNL1        0.0252
     20 H           0.6912   -0.8192    0.4241 H       1  UNL1        0.0252
     21 H           0.6912    0.1473   -1.0315 H       1  UNL1        0.0252
     22 H           2.9246    0.0212    0.9821 H       1  UNL1        0.0557
     23 H           2.9246    0.9877   -0.4735 H       1  UNL1        0.0557
     24 H           4.8179   -1.0941    0.2416 H       1  UNL1        0.0583
     25 H           4.8179   -0.1276   -1.2141 H       1  UNL1        0.0583
     26 H           4.6112   -2.1619   -2.5648 H       1  UNL1        0.0583
     27 H           4.6112   -3.1284   -1.1091 H       1  UNL1        0.0583
     28 H           6.5045   -3.2773   -3.3053 H       1  UNL1        0.0583
     29 H           6.5045   -4.2438   -1.8496 H       1  UNL1        0.0583
     30 H           8.7379   -3.4033   -1.2916 H       1  UNL1        0.0583
     31 H           8.7379   -2.4368   -2.7473 H       1  UNL1        0.0583
     32 H          10.6312   -4.5187   -2.0322 H       1  UNL1        0.0578
     33 H          10.6312   -3.5522   -3.4878 H       1  UNL1        0.0578
     34 H          10.4245   -5.5865   -4.8385 H       1  UNL1        0.0532
     35 H          10.4245   -6.5530   -3.3829 H       1  UNL1        0.0532
     36 H          12.4316   -7.3990   -4.9933 H       1  UNL1        0.0849
     37 H          16.1798   -5.5578   -3.7708 H       1  UNL1        0.1099
@<TRIPOS>BOND
     1     1     2    1
     2     2     3    1
     3     3     4    1
     4     4     5    1
     5     5     6    1
     6     6     7    1
     7     7     8    1
     8     8     9    1
     9     9    10    1
    10    10    11    1
    11    11    12    1
    12    12    13   ar
    13    13    14   ar
    14    14    15    1
    15    15    16    2
    16    14    17   ar
    17    17    18   ar
    18    12    18   ar
    19     1    19    1
    20     1    20    1
    21     1    21    1
    22     2    22    1
    23     2    23    1
    24     4    24    1
    25     4    25    1
    26     5    26    1
    27     5    27    1
    28     7    28    1
    29     7    29    1
    30     8    30    1
    31     8    31    1
    32    10    32    1
    33    10    33    1
    34    11    34    1
    35    11    35    1
    36    13    36    1
    37    15    37    1
