@<TRIPOS>MOLECULE
*****
 41 42 0 0 0
SMALL
GASTEIGER

@<TRIPOS>ATOM
      1 C           1.0704    0.0490   -0.0513 C.3     1  UNL1       -0.0524
      2 C           2.5904    0.0490   -0.0513 C.3     1  UNL1       -0.0039
      3 N           3.0804    1.2409    0.6559 N.3     1  UNL1       -0.3024
      4 C           4.5504    1.2409    0.6559 C.3     1  UNL1        0.0012
      5 C           5.0571    2.4733    1.3872 C.3     1  UNL1       -0.0137
      6 C           6.5771    2.4733    1.3872 C.3     1  UNL1        0.0614
      7 O           7.0504    2.4893    0.0485 O.3     1  UNL1       -0.3732
      8 C           6.5771    1.3380   -0.6347 C.3     1  UNL1        0.0619
      9 C           7.0838    1.3551   -2.0676 C.3     1  UNL1       -0.0107
     10 C           6.5771    0.1227   -2.7989 C.3     1  UNL1        0.0168
     11 N           7.0671    0.1392   -4.1848 N.am    1  UNL1       -0.3039
     12 C           7.9122    1.2474   -4.6523 C.2     1  UNL1        0.2025
     13 O           8.2192    2.1912   -3.8585 O.2     1  UNL1       -0.2793
     14 C           6.7120   -0.9524   -5.1030 C.3     1  UNL1        0.0168
     15 C           5.0571    1.3380   -0.6347 C.3     1  UNL1       -0.0107
     16 C           7.0837    3.7058    2.1185 C.3     1  UNL1       -0.0137
     17 C           2.5904    1.2244    2.0417 C.3     1  UNL1        0.0012
     18 H           0.7138   -0.8185   -0.5661 H       1  UNL1        0.0242
     19 H           0.7138    0.9286   -0.5453 H       1  UNL1        0.0242
     20 H           0.7138    0.0370    0.9574 H       1  UNL1        0.0242
     21 H           2.9471    0.0611   -1.0601 H       1  UNL1        0.0424
     22 H           2.9471   -0.8306    0.4426 H       1  UNL1        0.0424
     23 H           4.9071    1.2530   -0.3528 H       1  UNL1        0.0427
     24 H           4.9071    0.3613    1.1498 H       1  UNL1        0.0427
     25 H           4.7004    2.4613    2.3960 H       1  UNL1        0.0302
     26 H           4.7004    3.3530    0.8933 H       1  UNL1        0.0302
     27 H           6.9338    1.5937    1.8811 H       1  UNL1        0.0597
     28 H           6.9338    0.4584   -0.1407 H       1  UNL1        0.0597
     29 H           8.1538    1.3551   -2.0676 H       1  UNL1        0.0305
     30 H           6.7271    2.2347   -2.5616 H       1  UNL1        0.0305
     31 H           5.5071    0.1227   -2.7989 H       1  UNL1        0.0465
     32 H           6.9338   -0.7569   -2.3050 H       1  UNL1        0.0465
     33 H           8.2562    1.2590   -5.6253 H       1  UNL1        0.1253
     34 H           7.2280   -1.8896   -5.1199 H       1  UNL1        0.0465
     35 H           6.4266   -1.1607   -6.1130 H       1  UNL1        0.0465
     36 H           4.5565    0.7257    0.0860 H       1  UNL1        0.0305
     37 H           4.3744    2.1501   -0.4960 H       1  UNL1        0.0305
     38 H           7.2234    4.6434    1.6223 H       1  UNL1        0.0302
     39 H           7.8514    4.0033    2.8020 H       1  UNL1        0.0302
     40 H           1.7091    1.7898    2.2617 H       1  UNL1        0.0427
     41 H           2.2760    0.3888    2.6316 H       1  UNL1        0.0427
@<TRIPOS>BOND
     1     1     2    1
     2     2     3    1
     3     3     4    1
     4     4     5    1
     5     5     6    1
     6     6     7    1
     7     7     8    1
     8     8     9    1
     9     9    10    1
    10    10    11    1
    11    11    12   am
    12    12    13    2
    13    11    14    1
    14    14    15    1
    15     8    15    1
    16     6    16    1
    17    16    17    1
    18     3    17    1
    19     1    18    1
    20     1    19    1
    21     1    20    1
    22     2    21    1
    23     2    22    1
    24     4    23    1
    25     4    24    1
    26     5    25    1
    27     5    26    1
    28     6    27    1
    29     8    28    1
    30     9    29    1
    31     9    30    1
    32    10    31    1
    33    10    32    1
    34    12    33    1
    35    14    34    1
    36    14    35    1
    37    15    36    1
    38    15    37    1
    39    16    38    1
    40    16    39    1
    41    17    40    1
    42    17    41    1
