@<TRIPOS>MOLECULE
*****
 35 34 0 0 0
SMALL
GASTEIGER

@<TRIPOS>ATOM
      1 C           1.0329   -0.0805   -0.0494 C.3     1  UNL1       -0.0653
      2 C           2.5529   -0.0805   -0.0494 C.3     1  UNL1       -0.0559
      3 C           3.0595    0.9189    0.9777 C.3     1  UNL1       -0.0532
      4 C           4.5795    0.9189    0.9777 C.3     1  UNL1       -0.0510
      5 C           5.0862    1.9182    2.0049 C.3     1  UNL1       -0.0295
      6 C           6.6062    1.9182    2.0049 C.3     1  UNL1        0.0478
      7 O           7.0795    2.8518    2.9644 O.3     1  UNL1       -0.3775
      8 C           8.4995    2.8518    2.9644 C.3     1  UNL1        0.0710
      9 C           9.0062    3.8512    3.9915 C.3     1  UNL1        0.0716
     10 O          10.4262    3.8512    3.9915 O.3     1  UNL1       -0.3683
     11 C          10.8995    4.7848    4.9511 C.3     1  UNL1        0.1235
     12 C          12.4195    4.7848    4.9511 C.2     1  UNL1        0.2363
     13 N          13.1545    3.8970    4.0387 N.am    1  UNL1       -0.3274
     14 O          13.0550    5.5523    5.7399 O.2     1  UNL1       -0.2735
     15 H           0.6762   -0.7840   -0.7724 H       1  UNL1        0.0230
     16 H           0.6762    0.8974   -0.2971 H       1  UNL1        0.0230
     17 H           0.6762   -0.3549    0.9214 H       1  UNL1        0.0230
     18 H           2.9095    0.1939   -1.0201 H       1  UNL1        0.0263
     19 H           2.9095   -1.0584    0.1983 H       1  UNL1        0.0263
     20 H           2.7029    0.6444    1.9485 H       1  UNL1        0.0265
     21 H           2.7029    1.8968    0.7300 H       1  UNL1        0.0265
     22 H           4.9362    1.1933    0.0070 H       1  UNL1        0.0266
     23 H           4.9362   -0.0591    1.2255 H       1  UNL1        0.0266
     24 H           4.7295    1.6438    2.9756 H       1  UNL1        0.0287
     25 H           4.7295    2.8961    1.7571 H       1  UNL1        0.0287
     26 H           6.9629    2.1926    1.0341 H       1  UNL1        0.0560
     27 H           6.9629    0.9403    2.2526 H       1  UNL1        0.0560
     28 H           8.8562    3.1262    1.9937 H       1  UNL1        0.0583
     29 H           8.8562    1.8739    3.2121 H       1  UNL1        0.0583
     30 H           8.6495    3.5767    4.9623 H       1  UNL1        0.0583
     31 H           8.6495    4.8291    3.7438 H       1  UNL1        0.0583
     32 H          10.5428    4.5104    5.9219 H       1  UNL1        0.0656
     33 H          10.5428    5.7627    4.7034 H       1  UNL1        0.0656
     34 H          12.6623    3.3024    3.4276 H       1  UNL1        0.1450
     35 H          14.1390    3.8970    4.0387 H       1  UNL1        0.1450
@<TRIPOS>BOND
     1     1     2    1
     2     2     3    1
     3     3     4    1
     4     4     5    1
     5     5     6    1
     6     6     7    1
     7     7     8    1
     8     8     9    1
     9     9    10    1
    10    10    11    1
    11    11    12    1
    12    12    13   am
    13    12    14    2
    14     1    15    1
    15     1    16    1
    16     1    17    1
    17     2    18    1
    18     2    19    1
    19     3    20    1
    20     3    21    1
    21     4    22    1
    22     4    23    1
    23     5    24    1
    24     5    25    1
    25     6    26    1
    26     6    27    1
    27     8    28    1
    28     8    29    1
    29     9    30    1
    30     9    31    1
    31    11    32    1
    32    11    33    1
    33    13    34    1
    34    13    35    1
