@<TRIPOS>MOLECULE
*****
 14 13 0 0 0
SMALL
GASTEIGER

@<TRIPOS>ATOM
      1 C           1.0022    0.0864   -0.0503 C.3     1  UNL1       -0.0653
      2 C           2.5222    0.0864   -0.0503 C.3     1  UNL1       -0.0562
      3 C           3.0288   -0.5495    1.2340 C.3     1  UNL1       -0.0562
      4 C           4.5488   -0.5495    1.2340 C.3     1  UNL1       -0.0653
      5 H           0.6455    0.5340   -0.9544 H       1  UNL1        0.0230
      6 H           0.6455    0.6455    0.7894 H       1  UNL1        0.0230
      7 H           0.6455   -0.9204    0.0141 H       1  UNL1        0.0230
      8 H           2.8788    1.0931   -0.1147 H       1  UNL1        0.0263
      9 H           2.8788   -0.4727   -0.8900 H       1  UNL1        0.0263
     10 H           2.6722   -1.5562    1.2983 H       1  UNL1        0.0263
     11 H           2.6722    0.0096    2.0736 H       1  UNL1        0.0263
     12 H           4.9055   -1.1086    0.3943 H       1  UNL1        0.0230
     13 H           4.9055   -0.9971    2.1380 H       1  UNL1        0.0230
     14 H           4.9055    0.4573    1.1696 H       1  UNL1        0.0230
@<TRIPOS>BOND
     1     1     2    1
     2     2     3    1
     3     3     4    1
     4     1     5    1
     5     1     6    1
     6     1     7    1
     7     2     8    1
     8     2     9    1
     9     3    10    1
    10     3    11    1
    11     4    12    1
    12     4    13    1
    13     4    14    1
