@<TRIPOS>MOLECULE
*****
 26 25 0 0 0
SMALL
GASTEIGER

@<TRIPOS>ATOM
      1 C           1.0452    0.0067    0.0890 C.3     1  UNL1        0.0121
      2 C           2.5652    0.0067    0.0890 C.2     1  UNL1        0.2099
      3 O           3.2006   -0.8140   -0.6444 O.2     1  UNL1       -0.2761
      4 N           3.3002    0.9559    0.9373 N.am    1  UNL1       -0.3155
      5 C           4.7702    0.9559    0.9373 C.3     1  UNL1        0.0116
      6 C           5.2768    2.0245    1.8922 C.3     1  UNL1       -0.0373
      7 C           6.7968    2.0245    1.8922 C.3     1  UNL1       -0.0505
      8 C           7.3035    3.0931    2.8471 C.3     1  UNL1       -0.0406
      9 C           8.8235    3.0931    2.8471 C.3     1  UNL1       -0.0069
     10 N           9.3135    4.1265    3.7706 N.3     1  UNL1       -0.3300
     11 H           0.6885   -0.7455   -0.5833 H       1  UNL1        0.0322
     12 H           0.6885    0.9650   -0.2264 H       1  UNL1        0.0322
     13 H           0.6885   -0.1994    1.0765 H       1  UNL1        0.0322
     14 H           2.8079    1.5917    1.5054 H       1  UNL1        0.1487
     15 H           5.1269    1.1620   -0.0503 H       1  UNL1        0.0462
     16 H           5.1269   -0.0023    1.2526 H       1  UNL1        0.0462
     17 H           4.9202    1.8184    2.8797 H       1  UNL1        0.0280
     18 H           4.9202    2.9828    1.5769 H       1  UNL1        0.0280
     19 H           7.1535    2.2305    0.9046 H       1  UNL1        0.0266
     20 H           7.1535    1.0662    2.2075 H       1  UNL1        0.0266
     21 H           6.9468    2.8870    3.8346 H       1  UNL1        0.0277
     22 H           6.9468    4.0513    2.5318 H       1  UNL1        0.0277
     23 H           9.1802    3.2991    1.8596 H       1  UNL1        0.0422
     24 H           9.1802    2.1348    3.1624 H       1  UNL1        0.0422
     25 H           8.9735    5.0399    3.4700 H       1  UNL1        0.1182
     26 H          10.3335    4.1265    3.7706 H       1  UNL1        0.1182
@<TRIPOS>BOND
     1     1     2    1
     2     2     3    2
     3     2     4   am
     4     4     5    1
     5     5     6    1
     6     6     7    1
     7     7     8    1
     8     8     9    1
     9     9    10    1
    10     1    11    1
    11     1    12    1
    12     1    13    1
    13     4    14    1
    14     5    15    1
    15     5    16    1
    16     6    17    1
    17     6    18    1
    18     7    19    1
    19     7    20    1
    20     8    21    1
    21     8    22    1
    22     9    23    1
    23     9    24    1
    24    10    25    1
    25    10    26    1
