@<TRIPOS>MOLECULE
*****
 20 19 0 0 0
SMALL
GASTEIGER

@<TRIPOS>ATOM
      1 C           1.0195    0.0817   -0.0543 C.3     1  UNL1       -0.0639
      2 C           2.5395    0.0817   -0.0543 C.3     1  UNL1       -0.0402
      3 C           3.0461    1.0842   -1.0783 C.3     1  UNL1        0.0113
      4 N           4.5161    1.0842   -1.0783 N.am    1  UNL1       -0.3150
      5 C           5.2511    1.9748   -1.9880 C.2     1  UNL1        0.2199
      6 O           4.6157    2.7448   -2.7745 O.2     1  UNL1       -0.2754
      7 C           6.7711    1.9748   -1.9880 C.3     1  UNL1        0.0793
      8 C           7.2778    2.9774   -3.0120 C.2     1  UNL1        0.1290
      9 O           8.5273    3.1399   -3.1779 O.2     1  UNL1       -0.3005
     10 H           0.6628   -0.6241    0.6665 H       1  UNL1        0.0230
     11 H           0.6628   -0.1897   -1.0260 H       1  UNL1        0.0230
     12 H           0.6628    1.0588    0.1964 H       1  UNL1        0.0230
     13 H           2.8961   -0.8955   -0.3051 H       1  UNL1        0.0278
     14 H           2.8961    0.3530    0.9173 H       1  UNL1        0.0278
     15 H           2.6895    2.0614   -0.8276 H       1  UNL1        0.0462
     16 H           2.6895    0.8128   -2.0500 H       1  UNL1        0.0462
     17 H           5.0084    0.4877   -0.4691 H       1  UNL1        0.1487
     18 H           7.1278    0.9977   -2.2388 H       1  UNL1        0.0433
     19 H           7.1278    2.2462   -1.0164 H       1  UNL1        0.0433
     20 H           6.6072    3.5261   -3.5725 H       1  UNL1        0.1031
@<TRIPOS>BOND
     1     1     2    1
     2     2     3    1
     3     3     4    1
     4     4     5   am
     5     5     6    2
     6     5     7    1
     7     7     8    1
     8     8     9    2
     9     1    10    1
    10     1    11    1
    11     1    12    1
    12     2    13    1
    13     2    14    1
    14     3    15    1
    15     3    16    1
    16     4    17    1
    17     7    18    1
    18     7    19    1
    19     8    20    1
