@<TRIPOS>MOLECULE
*****
 33 34 0 0 0
SMALL
GASTEIGER

@<TRIPOS>ATOM
      1 C           1.0988   -0.0142   -0.0053 C.1     1  UNL1       -0.1139
      2 C           2.4027   -0.0142   -0.0053 C.1     1  UNL1       -0.0681
      3 C           3.9227   -0.0142   -0.0053 C.ar    1  UNL1        0.0429
      4 C           4.6428    1.1314    0.4879 C.ar    1  UNL1       -0.0416
      5 C           6.0830    1.1314    0.4879 C.ar    1  UNL1       -0.0205
      6 C           6.8031    2.2770    0.9811 C.ar    1  UNL1        0.1214
      7 N           6.0681    3.4463    1.4844 N.pl3   1  UNL1       -0.3127
      8 C           4.5981    3.4463    1.4844 C.3     1  UNL1        0.0263
      9 C           4.0914    4.7626    2.0511 C.3     1  UNL1        0.0147
     10 N           2.6214    4.7626    2.0511 N.3     1  UNL1       -0.2996
     11 C           2.1314    3.6515    2.8795 C.3     1  UNL1       -0.0038
     12 C           2.6381    2.3352    2.3129 C.3     1  UNL1       -0.0524
     13 C           2.1314    6.0356    2.5991 C.3     1  UNL1        0.0147
     14 C           6.8031    4.6156    1.9878 C.3     1  UNL1        0.0263
     15 N           8.1959    2.2770    0.9811 N.ar    1  UNL1       -0.2391
     16 C           4.6428   -1.1598   -0.4984 C.ar    1  UNL1        0.0450
     17 H           0.1048   -0.0142   -0.0053 H       1  UNL1        0.1232
     18 H           4.1268    1.9523    0.8413 H       1  UNL1        0.0631
     19 H           6.5990    0.3105    0.1345 H       1  UNL1        0.0652
     20 H           4.2414    2.6376    2.0874 H       1  UNL1        0.0477
     21 H           4.2414    3.3285    0.4825 H       1  UNL1        0.0477
     22 H           4.4481    5.5713    1.4480 H       1  UNL1        0.0442
     23 H           4.4481    4.8805    3.0530 H       1  UNL1        0.0442
     24 H           1.0614    3.6515    2.8795 H       1  UNL1        0.0424
     25 H           2.4881    3.7694    3.8814 H       1  UNL1        0.0424
     26 H           2.2814    2.2174    1.3110 H       1  UNL1        0.0242
     27 H           2.2814    1.5265    2.9159 H       1  UNL1        0.0242
     28 H           3.7081    2.3352    2.3129 H       1  UNL1        0.0242
     29 H           1.6902    6.0873    3.5725 H       1  UNL1        0.0442
     30 H           1.4966    6.8426    2.2980 H       1  UNL1        0.0442
     31 H           7.3804    4.4721    2.8772 H       1  UNL1        0.0477
     32 H           7.5693    5.1555    1.4716 H       1  UNL1        0.0477
     33 H           4.5213   -2.1011   -0.9036 H       1  UNL1        0.0843
@<TRIPOS>BOND
     1     1     2    3
     2     2     3    1
     3     3     4   ar
     4     4     5   ar
     5     5     6   ar
     6     6     7    1
     7     7     8    1
     8     8     9    1
     9     9    10    1
    10    10    11    1
    11    11    12    1
    12    10    13    1
    13    13    14    1
    14     7    14    1
    15     6    15   ar
    16    15    16   ar
    17     3    16   ar
    18     1    17    1
    19     4    18    1
    20     5    19    1
    21     8    20    1
    22     8    21    1
    23     9    22    1
    24     9    23    1
    25    11    24    1
    26    11    25    1
    27    12    26    1
    28    12    27    1
    29    12    28    1
    30    13    29    1
    31    13    30    1
    32    14    31    1
    33    14    32    1
    34    16    33    1
