@<TRIPOS>MOLECULE
*****
 25 24 0 0 0
SMALL
GASTEIGER

@<TRIPOS>ATOM
      1 C           0.9663    0.0542    0.0770 C.3     1  UNL1       -0.0653
      2 C           2.4863    0.0542    0.0770 C.3     1  UNL1       -0.0559
      3 C           2.9930    1.2274   -0.7461 C.3     1  UNL1       -0.0533
      4 C           4.5130    1.2274   -0.7461 C.3     1  UNL1       -0.0531
      5 C           5.0196    2.4005   -1.5691 C.3     1  UNL1       -0.0527
      6 C           6.5396    2.4005   -1.5691 C.3     1  UNL1       -0.0466
      7 C           7.0463    3.5737   -2.3922 C.3     1  UNL1        0.0028
      8 C           8.5663    3.5737   -2.3922 C.2     1  UNL1        0.1203
      9 O           9.2017    4.4747   -3.0243 O.2     1  UNL1       -0.3010
     10 H           0.6097   -0.7716    0.6563 H       1  UNL1        0.0230
     11 H           0.6096   -0.0346   -0.9279 H       1  UNL1        0.0230
     12 H           0.6096    0.9689    0.5025 H       1  UNL1        0.0230
     13 H           2.8430   -0.8604   -0.3485 H       1  UNL1        0.0263
     14 H           2.8430    0.1431    1.0818 H       1  UNL1        0.0263
     15 H           2.6363    2.1421   -0.3206 H       1  UNL1        0.0265
     16 H           2.6363    1.1386   -1.7510 H       1  UNL1        0.0265
     17 H           4.8696    0.3127   -1.1716 H       1  UNL1        0.0265
     18 H           4.8696    1.3162    0.2588 H       1  UNL1        0.0265
     19 H           4.6630    3.3152   -1.1436 H       1  UNL1        0.0265
     20 H           4.6630    2.3117   -2.5740 H       1  UNL1        0.0265
     21 H           6.8963    1.4859   -1.9946 H       1  UNL1        0.0269
     22 H           6.8963    2.4894   -0.5642 H       1  UNL1        0.0269
     23 H           6.6896    4.4884   -1.9667 H       1  UNL1        0.0339
     24 H           6.6896    3.4849   -3.3971 H       1  UNL1        0.0339
     25 H           9.0823    2.8421   -1.8789 H       1  UNL1        0.1026
@<TRIPOS>BOND
     1     1     2    1
     2     2     3    1
     3     3     4    1
     4     4     5    1
     5     5     6    1
     6     6     7    1
     7     7     8    1
     8     8     9    2
     9     1    10    1
    10     1    11    1
    11     1    12    1
    12     2    13    1
    13     2    14    1
    14     3    15    1
    15     3    16    1
    16     4    17    1
    17     4    18    1
    18     5    19    1
    19     5    20    1
    20     6    21    1
    21     6    22    1
    22     7    23    1
    23     7    24    1
    24     8    25    1
