@<TRIPOS>MOLECULE
*****
 33 33 0 0 0
SMALL
GASTEIGER

@<TRIPOS>ATOM
      1 C           0.9589   -0.0890    0.0197 C.1     1  UNL1       -0.1169
      2 C           2.2628   -0.0890    0.0197 C.1     1  UNL1       -0.0773
      3 C           3.7828   -0.0890    0.0197 C.3     1  UNL1        0.1080
      4 O           4.2561    0.9172    0.9028 O.3     1  UNL1       -0.3673
      5 C           5.6761    0.9172    0.9028 C.3     1  UNL1        0.0489
      6 C           6.1828    1.9942    1.8482 C.3     1  UNL1       -0.0294
      7 C           7.7028    1.9942    1.8482 C.3     1  UNL1       -0.0493
      8 C           8.2094    3.0713    2.7935 C.3     1  UNL1       -0.0332
      9 C           9.7294    3.0713    2.7935 C.3     1  UNL1        0.0432
     10 N          10.2194    4.1129    3.7077 N.ar    1  UNL1       -0.2510
     11 C          11.5888    4.3042    3.8756 C.ar    1  UNL1        0.0579
     12 C          12.0689    5.3247    4.7713 C.ar    1  UNL1        0.1666
     13 C          11.0811    6.1930    5.5334 C.2     1  UNL1        0.2632
     14 N          11.5711    7.2346    6.4477 N.am    1  UNL1       -0.3240
     15 O           9.8316    6.0185    5.3802 O.2     1  UNL1       -0.2686
     16 N          13.4382    5.5160    4.9392 N.ar    1  UNL1       -0.1248
     17 N           9.3451    4.8815    4.3823 N.ar    1  UNL1       -0.0650
     18 H          -0.0351   -0.0890    0.0197 H       1  UNL1        0.1229
     19 H           4.1394    0.1082   -0.9697 H       1  UNL1        0.0697
     20 H           4.1394   -1.0444    0.3436 H       1  UNL1        0.0697
     21 H           6.0328    1.1144   -0.0865 H       1  UNL1        0.0560
     22 H           6.0328   -0.0382    1.2267 H       1  UNL1        0.0560
     23 H           5.8261    1.7970    2.8375 H       1  UNL1        0.0287
     24 H           5.8261    2.9496    1.5243 H       1  UNL1        0.0287
     25 H           8.0594    2.1914    0.8588 H       1  UNL1        0.0267
     26 H           8.0594    1.0388    2.1720 H       1  UNL1        0.0267
     27 H           7.8528    2.8741    3.7828 H       1  UNL1        0.0283
     28 H           7.8528    4.0267    2.4696 H       1  UNL1        0.0283
     29 H          10.0861    3.2685    1.8041 H       1  UNL1        0.0509
     30 H          10.0861    2.1159    3.1174 H       1  UNL1        0.0509
     31 H          12.2594    3.7147    3.3582 H       1  UNL1        0.0850
     32 H          12.5390    7.3698    6.5663 H       1  UNL1        0.1453
     33 H          10.9313    7.7970    6.9413 H       1  UNL1        0.1453
@<TRIPOS>BOND
     1     1     2    3
     2     2     3    1
     3     3     4    1
     4     4     5    1
     5     5     6    1
     6     6     7    1
     7     7     8    1
     8     8     9    1
     9     9    10    1
    10    10    11   ar
    11    11    12   ar
    12    12    13    1
    13    13    14   am
    14    13    15    2
    15    12    16   ar
    16    16    17   ar
    17    10    17   ar
    18     1    18    1
    19     3    19    1
    20     3    20    1
    21     5    21    1
    22     5    22    1
    23     6    23    1
    24     6    24    1
    25     7    25    1
    26     7    26    1
    27     8    27    1
    28     8    28    1
    29     9    29    1
    30     9    30    1
    31    11    31    1
    32    14    32    1
    33    14    33    1
