@<TRIPOS>MOLECULE
*****
 30 29 0 0 0
SMALL
GASTEIGER

@<TRIPOS>ATOM
      1 C           0.9792    0.0968    0.0140 C.3     1  UNL1        0.0121
      2 C           2.4992    0.0968    0.0140 C.2     1  UNL1        0.2100
      3 O           3.1346    0.7115   -0.8990 O.2     1  UNL1       -0.2761
      4 N           3.2342   -0.6142    1.0700 N.am    1  UNL1       -0.3133
      5 C           4.7042   -0.6142    1.0700 C.3     1  UNL1        0.0350
      6 C           5.2108   -1.4145    2.2588 C.3     1  UNL1        0.0632
      7 O           6.6308   -1.4145    2.2588 O.3     1  UNL1       -0.3760
      8 C           7.1042   -2.1622    3.3693 C.3     1  UNL1        0.0711
      9 C           8.6242   -2.1622    3.3693 C.3     1  UNL1        0.0711
     10 O           9.0975   -2.9099    4.4799 O.3     1  UNL1       -0.3752
     11 C          10.5175   -2.9099    4.4799 C.3     1  UNL1        0.0708
     12 C          11.0242   -3.7102    5.6686 C.3     1  UNL1        0.0676
     13 O          12.4442   -3.7102    5.6686 O.3     1  UNL1       -0.3927
     14 H           0.6225    0.6602   -0.8228 H       1  UNL1        0.0322
     15 H           0.6225    0.5398    0.9203 H       1  UNL1        0.0322
     16 H           0.6225   -0.9096   -0.0555 H       1  UNL1        0.0322
     17 H           2.7419   -1.0903    1.7773 H       1  UNL1        0.1488
     18 H           5.0608    0.3922    1.1395 H       1  UNL1        0.0484
     19 H           5.0608   -1.0572    0.1637 H       1  UNL1        0.0484
     20 H           4.8542   -2.4209    2.1893 H       1  UNL1        0.0575
     21 H           4.8542   -0.9715    3.1651 H       1  UNL1        0.0575
     22 H           6.7475   -3.1686    3.2998 H       1  UNL1        0.0583
     23 H           6.7475   -1.7192    4.2756 H       1  UNL1        0.0583
     24 H           8.9808   -1.1558    3.4388 H       1  UNL1        0.0583
     25 H           8.9808   -2.6052    2.4630 H       1  UNL1        0.0583
     26 H          10.8742   -1.9035    4.5494 H       1  UNL1        0.0583
     27 H          10.8742   -3.3529    3.5735 H       1  UNL1        0.0583
     28 H          10.6675   -4.7166    5.5991 H       1  UNL1        0.0580
     29 H          10.6675   -3.2672    6.5750 H       1  UNL1        0.0580
     30 H          12.7675   -4.1118    4.8470 H       1  UNL1        0.2095
@<TRIPOS>BOND
     1     1     2    1
     2     2     3    2
     3     2     4   am
     4     4     5    1
     5     5     6    1
     6     6     7    1
     7     7     8    1
     8     8     9    1
     9     9    10    1
    10    10    11    1
    11    11    12    1
    12    12    13    1
    13     1    14    1
    14     1    15    1
    15     1    16    1
    16     4    17    1
    17     5    18    1
    18     5    19    1
    19     6    20    1
    20     6    21    1
    21     8    22    1
    22     8    23    1
    23     9    24    1
    24     9    25    1
    25    11    26    1
    26    11    27    1
    27    12    28    1
    28    12    29    1
    29    13    30    1
