@<TRIPOS>MOLECULE
*****
 51 50 0 0 0
SMALL
GASTEIGER

@<TRIPOS>ATOM
      1 O           1.0498    0.0657   -0.0566 O.2     1  UNL1       -0.3010
      2 C           2.3207    0.0657   -0.0566 C.2     1  UNL1        0.1203
      3 C           3.0807    0.6252   -1.2481 C.3     1  UNL1        0.0028
      4 C           4.5751    0.5072   -0.9967 C.3     1  UNL1       -0.0466
      5 C           5.3351    1.0667   -2.1882 C.3     1  UNL1       -0.0526
      6 C           6.8295    0.9486   -1.9368 C.3     1  UNL1       -0.0510
      7 C           7.5895    1.5081   -3.1284 C.3     1  UNL1       -0.0295
      8 C           9.0839    1.3901   -2.8769 C.3     1  UNL1        0.0478
      9 O           9.7939    1.9128   -3.9901 O.3     1  UNL1       -0.3775
     10 C          11.1900    1.8025   -3.7552 C.3     1  UNL1        0.0710
     11 C          11.9500    2.3620   -4.9467 C.3     1  UNL1        0.0711
     12 O          13.3461    2.2517   -4.7119 O.3     1  UNL1       -0.3752
     13 C          14.0561    2.7744   -5.8250 C.3     1  UNL1        0.0711
     14 C          15.5505    2.6564   -5.5736 C.3     1  UNL1        0.0711
     15 O          16.2605    3.1791   -6.6867 O.3     1  UNL1       -0.3752
     16 C          17.6566    3.0688   -6.4519 C.3     1  UNL1        0.0711
     17 C          18.4166    3.6283   -7.6434 C.3     1  UNL1        0.0711
     18 O          19.8127    3.5180   -7.4085 O.3     1  UNL1       -0.3752
     19 C          20.5227    4.0407   -8.5217 C.3     1  UNL1        0.0708
     20 C          22.0171    3.9226   -8.2702 C.3     1  UNL1        0.0676
     21 O          22.7271    4.4453   -9.3834 O.3     1  UNL1       -0.3927
     22 H           2.8367   -0.3142    0.7524 H       1  UNL1        0.1026
     23 H           2.8222    1.6545   -1.3847 H       1  UNL1        0.0339
     24 H           2.8222    0.0729   -2.1274 H       1  UNL1        0.0339
     25 H           4.8336   -0.5221   -0.8602 H       1  UNL1        0.0269
     26 H           4.8336    1.0595   -0.1175 H       1  UNL1        0.0269
     27 H           5.0766    2.0960   -2.3248 H       1  UNL1        0.0265
     28 H           5.0766    0.5144   -3.0675 H       1  UNL1        0.0265
     29 H           7.0880   -0.0807   -1.8003 H       1  UNL1        0.0266
     30 H           7.0880    1.5009   -1.0576 H       1  UNL1        0.0266
     31 H           7.3310    2.5374   -3.2649 H       1  UNL1        0.0287
     32 H           7.3310    0.9558   -4.0076 H       1  UNL1        0.0287
     33 H           9.3424    0.3608   -2.7404 H       1  UNL1        0.0560
     34 H           9.3424    1.9424   -1.9977 H       1  UNL1        0.0560
     35 H          11.4485    0.7732   -3.6187 H       1  UNL1        0.0583
     36 H          11.4485    2.3548   -2.8760 H       1  UNL1        0.0583
     37 H          11.6915    3.3913   -5.0833 H       1  UNL1        0.0583
     38 H          11.6915    1.8097   -5.8260 H       1  UNL1        0.0583
     39 H          13.7976    3.8037   -5.9615 H       1  UNL1        0.0583
     40 H          13.7976    2.2221   -6.7042 H       1  UNL1        0.0583
     41 H          15.8090    1.6271   -5.4371 H       1  UNL1        0.0583
     42 H          15.8090    3.2087   -4.6944 H       1  UNL1        0.0583
     43 H          17.9151    2.0395   -6.3153 H       1  UNL1        0.0583
     44 H          17.9151    3.6211   -5.5726 H       1  UNL1        0.0583
     45 H          18.1581    4.6576   -7.7799 H       1  UNL1        0.0583
     46 H          18.1581    3.0760   -8.5226 H       1  UNL1        0.0583
     47 H          20.2642    5.0700   -8.6582 H       1  UNL1        0.0583
     48 H          20.2642    3.4884   -9.4009 H       1  UNL1        0.0583
     49 H          22.2756    2.8933   -8.1337 H       1  UNL1        0.0580
     50 H          22.2756    4.4749   -7.3910 H       1  UNL1        0.0580
     51 H          22.4927    3.9446  -10.1804 H       1  UNL1        0.2095
@<TRIPOS>BOND
     1     1     2    2
     2     2     3    1
     3     3     4    1
     4     4     5    1
     5     5     6    1
     6     6     7    1
     7     7     8    1
     8     8     9    1
     9     9    10    1
    10    10    11    1
    11    11    12    1
    12    12    13    1
    13    13    14    1
    14    14    15    1
    15    15    16    1
    16    16    17    1
    17    17    18    1
    18    18    19    1
    19    19    20    1
    20    20    21    1
    21     2    22    1
    22     3    23    1
    23     3    24    1
    24     4    25    1
    25     4    26    1
    26     5    27    1
    27     5    28    1
    28     6    29    1
    29     6    30    1
    30     7    31    1
    31     7    32    1
    32     8    33    1
    33     8    34    1
    34    10    35    1
    35    10    36    1
    36    11    37    1
    37    11    38    1
    38    13    39    1
    39    13    40    1
    40    14    41    1
    41    14    42    1
    42    16    43    1
    43    16    44    1
    44    17    45    1
    45    17    46    1
    46    19    47    1
    47    19    48    1
    48    20    49    1
    49    20    50    1
    50    21    51    1
