@<TRIPOS>MOLECULE
*****
 31 32 0 0 0
SMALL
GASTEIGER

@<TRIPOS>ATOM
      1 C           1.0595   -0.0677   -0.0433 C.3     1  UNL1       -0.0027
      2 C           2.5795   -0.0677   -0.0433 C.3     1  UNL1       -0.0247
      3 C           3.0862    1.2101   -0.6920 C.3     1  UNL1        0.0128
      4 N           2.5962    2.3714    0.0645 N.3     1  UNL1       -0.2969
      5 C           1.1262    2.3714    0.0645 C.3     1  UNL1        0.0118
      6 C           0.6195    3.5721    0.8468 C.3     1  UNL1        0.0087
      7 N          -0.8505    3.5721    0.8468 N.3     1  UNL1       -0.3136
      8 C          -1.3405    4.7333    1.6033 C.3     1  UNL1        0.0087
      9 C           3.0862    3.6072   -0.5628 C.3     1  UNL1        0.0118
     10 C           4.6062    1.2101   -0.6920 C.3     1  UNL1       -0.0247
     11 C           5.1129    2.4880   -1.3407 C.3     1  UNL1       -0.0027
     12 N           0.5696   -1.3035    0.5841 N.3     1  UNL1       -0.3159
     13 H           0.7029   -0.0134   -1.0506 H       1  UNL1        0.0424
     14 H           0.7029    0.7776    0.5074 H       1  UNL1        0.0424
     15 H           2.9362   -0.9129   -0.5940 H       1  UNL1        0.0293
     16 H           2.9362   -0.1220    0.9641 H       1  UNL1        0.0293
     17 H           2.7295    1.2644   -1.6993 H       1  UNL1        0.0463
     18 H           0.7695    1.4718    0.5212 H       1  UNL1        0.0439
     19 H           0.7695    2.4256   -0.9428 H       1  UNL1        0.0439
     20 H           0.9762    4.4716    0.3901 H       1  UNL1        0.0437
     21 H           0.9762    3.5178    1.8542 H       1  UNL1        0.0437
     22 H          -1.1905    2.7146    1.2821 H       1  UNL1        0.1220
     23 H          -1.4773    4.7030    2.6641 H       1  UNL1        0.0437
     24 H          -2.1108    5.4751    1.5690 H       1  UNL1        0.0437
     25 H           3.9669    4.0557   -0.1529 H       1  UNL1        0.0439
     26 H           3.4008    3.7692   -1.5726 H       1  UNL1        0.0439
     27 H           4.9629    0.3649   -1.2427 H       1  UNL1        0.0293
     28 H           4.9629    1.1559    0.3153 H       1  UNL1        0.0293
     29 H           5.4510    2.5535   -2.3538 H       1  UNL1        0.0424
     30 H           5.6155    3.4219   -1.1991 H       1  UNL1        0.0424
     31 H           0.2472   -1.3659    1.5498 H       1  UNL1        0.1219
@<TRIPOS>BOND
     1     1     2    1
     2     2     3    1
     3     3     4    1
     4     4     5    1
     5     5     6    1
     6     6     7    1
     7     7     8    1
     8     8     9    1
     9     4     9    1
    10     3    10    1
    11    10    11    1
    12    11    12    1
    13     1    12    1
    14     1    13    1
    15     1    14    1
    16     2    15    1
    17     2    16    1
    18     3    17    1
    19     5    18    1
    20     5    19    1
    21     6    20    1
    22     6    21    1
    23     7    22    1
    24     8    23    1
    25     8    24    1
    26     9    25    1
    27     9    26    1
    28    10    27    1
    29    10    28    1
    30    11    29    1
    31    11    30    1
    32    12    31    1
