@<TRIPOS>MOLECULE
*****
 28 30 0 0 0
SMALL
GASTEIGER

@<TRIPOS>ATOM
      1 C           0.0000    0.0000    0.0000 C.3     1  UNL1        0.0361
      2 C           0.0000    0.0000    0.0000 C.ar    1  UNL1        0.0357
      3 C           0.0000    0.0000    0.0000 C.ar    1  UNL1        0.0213
      4 C           0.0000    0.0000    0.0000 C.ar    1  UNL1        0.1224
      5 N           0.0000    0.0000    0.0000 N.pl3   1  UNL1       -0.0937
      6 S           0.0000    0.0000    0.0000 S.O2    1  UNL1        0.0929
      7 O           0.0000    0.0000    0.0000 O.2     1  UNL1       -0.1483
      8 O           0.0000    0.0000    0.0000 O.2     1  UNL1       -0.1483
      9 C           0.0000    0.0000    0.0000 C.ar    1  UNL1        0.1270
     10 C           0.0000    0.0000    0.0000 C.ar    1  UNL1        0.0202
     11 C           0.0000    0.0000    0.0000 C.ar    1  UNL1        0.0014
     12 C           0.0000    0.0000    0.0000 C.ar    1  UNL1        0.0001
     13 C           0.0000    0.0000    0.0000 C.ar    1  UNL1        0.0014
     14 C           0.0000    0.0000    0.0000 C.ar    1  UNL1        0.0202
     15 C           0.0000    0.0000    0.0000 C.ar    1  UNL1        0.1522
     16 N           0.0000    0.0000    0.0000 N.pl3   1  UNL1       -0.1920
     17 C           0.0000    0.0000    0.0000 C.ar    1  UNL1        0.0995
     18 C           0.0000    0.0000    0.0000 C.ar    1  UNL1        0.0193
     19 C           0.0000    0.0000    0.0000 C.ar    1  UNL1        0.0073
     20 C           0.0000    0.0000    0.0000 C.ar    1  UNL1        0.0324
     21 I           0.0000    0.0000    0.0000 I       1  UNL1       -0.0424
     22 C           0.0000    0.0000    0.0000 C.ar    1  UNL1        0.0368
     23 C           0.0000    0.0000    0.0000 C.ar    1  UNL1        0.1557
     24 F           0.0000    0.0000    0.0000 F       1  UNL1       -0.2028
     25 N           0.0000    0.0000    0.0000 N.ar    1  UNL1       -0.2798
     26 C           0.0000    0.0000    0.0000 C.3     1  UNL1        0.1349
     27 C           0.0000    0.0000    0.0000 C.ar    1  UNL1        0.2579
     28 O           0.0000    0.0000    0.0000 O.2     1  UNL1       -0.2673
@<TRIPOS>BOND
     1     1     2    1
     2     2     3   ar
     3     3     4   ar
     4     4     5    1
     5     5     6    1
     6     6     7    2
     7     6     8    2
     8     6     9    1
     9     9    10   ar
    10    10    11   ar
    11    11    12   ar
    12    12    13   ar
    13    13    14   ar
    14     9    14   ar
    15     4    15   ar
    16    15    16    1
    17    16    17    1
    18    17    18   ar
    19    18    19   ar
    20    19    20   ar
    21    20    21    1
    22    20    22   ar
    23    22    23   ar
    24    17    23   ar
    25    23    24    1
    26    15    25   ar
    27    25    26    1
    28    25    27   ar
    29     2    27   ar
    30    27    28    2
