@<TRIPOS>MOLECULE
*****
 36 40 0 0 0
SMALL
GASTEIGER

@<TRIPOS>ATOM
      1 C           0.0000    0.0000    0.0000 C.3     1  UNL1        0.1388
      2 N           0.0000    0.0000    0.0000 N.am    1  UNL1       -0.1998
      3 C           0.0000    0.0000    0.0000 C.2     1  UNL1        0.2646
      4 O           0.0000    0.0000    0.0000 O.2     1  UNL1       -0.2684
      5 C           0.0000    0.0000    0.0000 C.ar    1  UNL1        0.0540
      6 C           0.0000    0.0000    0.0000 C.ar    1  UNL1        0.0192
      7 C           0.0000    0.0000    0.0000 C.ar    1  UNL1        0.0532
      8 C           0.0000    0.0000    0.0000 C.ar    1  UNL1        0.0149
      9 C           0.0000    0.0000    0.0000 C.ar    1  UNL1       -0.0011
     10 C           0.0000    0.0000    0.0000 C.ar    1  UNL1        0.0058
     11 C           0.0000    0.0000    0.0000 C.3     1  UNL1        0.1774
     12 S           0.0000    0.0000    0.0000 S.O2    1  UNL1       -0.0040
     13 C           0.0000    0.0000    0.0000 C.3     1  UNL1        0.1764
     14 O           0.0000    0.0000    0.0000 O.2     1  UNL1       -0.1726
     15 O           0.0000    0.0000    0.0000 O.2     1  UNL1       -0.1726
     16 C           0.0000    0.0000    0.0000 C.ar    1  UNL1        0.0199
     17 C           0.0000    0.0000    0.0000 C.ar    1  UNL1        0.0785
     18 N           0.0000    0.0000    0.0000 N.ar    1  UNL1       -0.2909
     19 C           0.0000    0.0000    0.0000 C.3     1  UNL1        0.1336
     20 C           0.0000    0.0000    0.0000 C.ar    1  UNL1        0.2786
     21 O           0.0000    0.0000    0.0000 O.2     1  UNL1       -0.2653
     22 C           0.0000    0.0000    0.0000 C.ar    1  UNL1        0.1370
     23 C           0.0000    0.0000    0.0000 C.ar    1  UNL1        0.0230
     24 C           0.0000    0.0000    0.0000 C.ar    1  UNL1        0.0188
     25 C           0.0000    0.0000    0.0000 C.ar    1  UNL1        0.0964
     26 N           0.0000    0.0000    0.0000 N.ar    1  UNL1       -0.2393
     27 C           0.0000    0.0000    0.0000 C.3     1  UNL1        0.1251
     28 N           0.0000    0.0000    0.0000 N.pl3   1  UNL1       -0.2663
     29 C           0.0000    0.0000    0.0000 C.ar    1  UNL1        0.1635
     30 N           0.0000    0.0000    0.0000 N.ar    1  UNL1       -0.2242
     31 C           0.0000    0.0000    0.0000 C.ar    1  UNL1        0.1300
     32 C           0.0000    0.0000    0.0000 C.ar    1  UNL1        0.1616
     33 F           0.0000    0.0000    0.0000 F       1  UNL1       -0.2025
     34 C           0.0000    0.0000    0.0000 C.ar    1  UNL1        0.0638
     35 C           0.0000    0.0000    0.0000 C.ar    1  UNL1        0.1741
     36 F           0.0000    0.0000    0.0000 F       1  UNL1       -0.2011
@<TRIPOS>BOND
     1     1     2    1
     2     2     3   am
     3     3     4    2
     4     3     5    1
     5     5     6   ar
     6     6     7   ar
     7     7     8   ar
     8     8     9   ar
     9     9    10   ar
    10     5    10   ar
    11    10    11    1
    12    11    12    1
    13    12    13    1
    14    12    14    2
    15    12    15    2
    16     8    16    1
    17    16    17   ar
    18    17    18   ar
    19    18    19    1
    20    18    20   ar
    21    20    21    2
    22    20    22   ar
    23    22    23   ar
    24    16    23   ar
    25    23    24   ar
    26    24    25   ar
    27    25    26   ar
    28    22    26   ar
    29    24    27    1
    30    27    28    1
    31     7    28    1
    32    28    29    1
    33    29    30   ar
    34    30    31   ar
    35    31    32   ar
    36    32    33    1
    37    32    34   ar
    38    34    35   ar
    39    29    35   ar
    40    35    36    1
