@<TRIPOS>MOLECULE
*****
 25 27 0 0 0
SMALL
GASTEIGER

@<TRIPOS>ATOM
      1 C           0.0000    0.0000    0.0000 C.3     1  UNL1        0.0317
      2 C           0.0000    0.0000    0.0000 C.ar    1  UNL1       -0.0107
      3 C           0.0000    0.0000    0.0000 C.ar    1  UNL1        0.0834
      4 C           0.0000    0.0000    0.0000 C.2     1  UNL1        0.2884
      5 O           0.0000    0.0000    0.0000 O.2     1  UNL1       -0.2645
      6 N           0.0000    0.0000    0.0000 N.ar    1  UNL1       -0.1579
      7 N           0.0000    0.0000    0.0000 N.ar    1  UNL1       -0.1226
      8 C           0.0000    0.0000    0.0000 C.ar    1  UNL1        0.2606
      9 N           0.0000    0.0000    0.0000 N.pl3   1  UNL1       -0.1764
     10 C           0.0000    0.0000    0.0000 C.ar    1  UNL1        0.0737
     11 C           0.0000    0.0000    0.0000 C.ar    1  UNL1        0.0180
     12 C           0.0000    0.0000    0.0000 C.ar    1  UNL1        0.0213
     13 C           0.0000    0.0000    0.0000 C.ar    1  UNL1        0.1251
     14 S           0.0000    0.0000    0.0000 S.O2    1  UNL1        0.0935
     15 N           0.0000    0.0000    0.0000 N.3     1  UNL1        0.0392
     16 O           0.0000    0.0000    0.0000 O.2     1  UNL1       -0.1503
     17 O           0.0000    0.0000    0.0000 O.2     1  UNL1       -0.1503
     18 C           0.0000    0.0000    0.0000 C.ar    1  UNL1        0.0213
     19 C           0.0000    0.0000    0.0000 C.ar    1  UNL1        0.0180
     20 N           0.0000    0.0000    0.0000 N.ar    1  UNL1       -0.1754
     21 C           0.0000    0.0000    0.0000 C.ar    1  UNL1        0.2628
     22 N           0.0000    0.0000    0.0000 N.pl3   1  UNL1       -0.0858
     23 S           0.0000    0.0000    0.0000 S.2     1  UNL1       -0.0819
     24 C           0.0000    0.0000    0.0000 C.ar    1  UNL1        0.0353
     25 C           0.0000    0.0000    0.0000 C.ar    1  UNL1        0.0034
@<TRIPOS>BOND
     1     1     2    1
     2     2     3   ar
     3     3     4    1
     4     4     5    2
     5     4     6   am
     6     6     7   ar
     7     7     8   ar
     8     8     9    1
     9     9    10    1
    10    10    11   ar
    11    11    12   ar
    12    12    13   ar
    13    13    14    1
    14    14    15    1
    15    14    16    2
    16    14    17    2
    17    13    18   ar
    18    18    19   ar
    19    10    19   ar
    20     8    20   ar
    21    20    21   ar
    22     6    21   ar
    23    21    22    1
    24     3    23   ar
    25    23    24   ar
    26    24    25   ar
    27     2    25   ar
