@<TRIPOS>MOLECULE
*****
 72 78 0 0 0
SMALL
GASTEIGER

@<TRIPOS>ATOM
      1 C           0.0000    0.0000    0.0000 C.3     1  UNL1        0.0001
      2 C           0.0000    0.0000    0.0000 C.3     1  UNL1        0.0018
      3 C           0.0000    0.0000    0.0000 C.3     1  UNL1        0.0235
      4 C           0.0000    0.0000    0.0000 C.3     1  UNL1        0.0019
      5 C           0.0000    0.0000    0.0000 C.3     1  UNL1        0.1349
      6 N           0.0000    0.0000    0.0000 N.3     1  UNL1       -0.1264
      7 C           0.0000    0.0000    0.0000 C.ar    1  UNL1        0.1182
      8 C           0.0000    0.0000    0.0000 C.ar    1  UNL1        0.1151
      9 N           0.0000    0.0000    0.0000 N.ar    1  UNL1       -0.2233
     10 C           0.0000    0.0000    0.0000 C.3     1  UNL1        0.1870
     11 C           0.0000    0.0000    0.0000 C.3     1  UNL1        0.0601
     12 C           0.0000    0.0000    0.0000 C.ar    1  UNL1       -0.0195
     13 C           0.0000    0.0000    0.0000 C.ar    1  UNL1       -0.0009
     14 C           0.0000    0.0000    0.0000 C.ar    1  UNL1        0.0417
     15 C           0.0000    0.0000    0.0000 C.ar    1  UNL1        0.1957
     16 O           0.0000    0.0000    0.0000 O.3     1  UNL1       -0.2866
     17 C           0.0000    0.0000    0.0000 C.ar    1  UNL1        0.0417
     18 C           0.0000    0.0000    0.0000 C.ar    1  UNL1       -0.0009
     19 C           0.0000    0.0000    0.0000 C.2     1  UNL1        0.2485
     20 O           0.0000    0.0000    0.0000 O.2     1  UNL1       -0.2728
     21 N           0.0000    0.0000    0.0000 N.am    1  UNL1       -0.2745
     22 C           0.0000    0.0000    0.0000 C.3     1  UNL1        0.1150
     23 C           0.0000    0.0000    0.0000 C.3     1  UNL1        0.1151
     24 N           0.0000    0.0000    0.0000 N.pl3   1  UNL1       -0.2746
     25 C           0.0000    0.0000    0.0000 C.ar    1  UNL1        0.2250
     26 N           0.0000    0.0000    0.0000 N.ar    1  UNL1       -0.1794
     27 C           0.0000    0.0000    0.0000 C.ar    1  UNL1        0.2413
     28 N           0.0000    0.0000    0.0000 N.pl3   1  UNL1       -0.2011
     29 C           0.0000    0.0000    0.0000 C.3     1  UNL1        0.1473
     30 C           0.0000    0.0000    0.0000 C.3     1  UNL1        0.1656
     31 O           0.0000    0.0000    0.0000 O.3     1  UNL1       -0.3492
     32 C           0.0000    0.0000    0.0000 C.3     1  UNL1        0.1742
     33 C           0.0000    0.0000    0.0000 C.3     1  UNL1        0.1742
     34 O           0.0000    0.0000    0.0000 O.3     1  UNL1       -0.3483
     35 C           0.0000    0.0000    0.0000 C.3     1  UNL1        0.1777
     36 C           0.0000    0.0000    0.0000 C.3     1  UNL1        0.2140
     37 O           0.0000    0.0000    0.0000 O.3     1  UNL1       -0.2176
     38 N           0.0000    0.0000    0.0000 N.ar    1  UNL1       -0.1794
     39 C           0.0000    0.0000    0.0000 C.ar    1  UNL1        0.2250
     40 N           0.0000    0.0000    0.0000 N.pl3   1  UNL1       -0.2746
     41 C           0.0000    0.0000    0.0000 C.3     1  UNL1        0.1151
     42 C           0.0000    0.0000    0.0000 C.3     1  UNL1        0.1150
     43 N           0.0000    0.0000    0.0000 N.am    1  UNL1       -0.2745
     44 C           0.0000    0.0000    0.0000 C.2     1  UNL1        0.2485
     45 O           0.0000    0.0000    0.0000 O.2     1  UNL1       -0.2728
     46 C           0.0000    0.0000    0.0000 C.3     1  UNL1        0.1870
     47 C           0.0000    0.0000    0.0000 C.3     1  UNL1        0.0601
     48 C           0.0000    0.0000    0.0000 C.ar    1  UNL1       -0.0195
     49 C           0.0000    0.0000    0.0000 C.ar    1  UNL1       -0.0009
     50 C           0.0000    0.0000    0.0000 C.ar    1  UNL1        0.0417
     51 C           0.0000    0.0000    0.0000 C.ar    1  UNL1        0.1957
     52 O           0.0000    0.0000    0.0000 O.3     1  UNL1       -0.2866
     53 C           0.0000    0.0000    0.0000 C.ar    1  UNL1        0.0417
     54 C           0.0000    0.0000    0.0000 C.ar    1  UNL1       -0.0009
     55 N           0.0000    0.0000    0.0000 N.ar    1  UNL1       -0.2233
     56 C           0.0000    0.0000    0.0000 C.ar    1  UNL1        0.1151
     57 C           0.0000    0.0000    0.0000 C.ar    1  UNL1        0.1182
     58 C           0.0000    0.0000    0.0000 C.3     1  UNL1        0.1349
     59 N           0.0000    0.0000    0.0000 N.3     1  UNL1       -0.1264
     60 C           0.0000    0.0000    0.0000 C.3     1  UNL1        0.0235
     61 C           0.0000    0.0000    0.0000 C.3     1  UNL1        0.0019
     62 C           0.0000    0.0000    0.0000 C.3     1  UNL1        0.0018
     63 C           0.0000    0.0000    0.0000 C.3     1  UNL1        0.0001
     64 N           0.0000    0.0000    0.0000 N.ar    1  UNL1       -0.1317
     65 N           0.0000    0.0000    0.0000 N.ar    1  UNL1       -0.0637
     66 C           0.0000    0.0000    0.0000 C.3     1  UNL1        0.1150
     67 C           0.0000    0.0000    0.0000 C.3     1  UNL1        0.1151
     68 N           0.0000    0.0000    0.0000 N.ar    1  UNL1       -0.1807
     69 C           0.0000    0.0000    0.0000 C.3     1  UNL1        0.1151
     70 C           0.0000    0.0000    0.0000 C.3     1  UNL1        0.1150
     71 N           0.0000    0.0000    0.0000 N.ar    1  UNL1       -0.0637
     72 N           0.0000    0.0000    0.0000 N.ar    1  UNL1       -0.1317
@<TRIPOS>BOND
     1     1     2    1
     2     2     3    1
     3     3     4    1
     4     3     5    1
     5     5     6    1
     6     5     7    1
     7     7     8   ar
     8     8     9   ar
     9     9    10    1
    10    10    11    1
    11    11    12    1
    12    12    13   ar
    13    13    14   ar
    14    14    15   ar
    15    15    16    1
    16    15    17   ar
    17    17    18   ar
    18    12    18   ar
    19    10    19    1
    20    19    20    2
    21    19    21   am
    22    21    22    1
    23    22    23    1
    24    23    24    1
    25    24    25    1
    26    25    26   ar
    27    26    27   ar
    28    27    28    1
    29    28    29    1
    30    29    30    1
    31    30    31    1
    32    31    32    1
    33    32    33    1
    34    33    34    1
    35    34    35    1
    36    35    36    1
    37    36    37    1
    38    27    38   ar
    39    38    39   ar
    40    39    40    1
    41    40    41    1
    42    41    42    1
    43    42    43    1
    44    43    44   am
    45    44    45    2
    46    44    46    1
    47    46    47    1
    48    47    48    1
    49    48    49   ar
    50    49    50   ar
    51    50    51   ar
    52    51    52    1
    53    51    53   ar
    54    53    54   ar
    55    48    54   ar
    56    46    55    1
    57    55    56   ar
    58    56    57   ar
    59    57    58    1
    60    58    59    1
    61    58    60    1
    62    60    61    1
    63    60    62    1
    64    62    63    1
    65    57    64   ar
    66    64    65   ar
    67    55    65   ar
    68    43    66    1
    69    66    67    1
    70    40    67    1
    71    39    68   ar
    72    25    68   ar
    73    24    69    1
    74    69    70    1
    75    21    70    1
    76     9    71   ar
    77    71    72   ar
    78     7    72   ar
