@<TRIPOS>MOLECULE
*****
 18 18 0 0 0
SMALL
GASTEIGER

@<TRIPOS>ATOM
      1 C           0.0000    0.0000    0.0000 C.3     1  UNL1        0.0307
      2 C           0.0000    0.0000    0.0000 C.2     1  UNL1       -0.0258
      3 C           0.0000    0.0000    0.0000 C.2     1  UNL1       -0.0043
      4 C           0.0000    0.0000    0.0000 C.2     1  UNL1       -0.0003
      5 C           0.0000    0.0000    0.0000 C.2     1  UNL1       -0.0000
      6 C           0.0000    0.0000    0.0000 C.ar    1  UNL1       -0.0003
      7 C           0.0000    0.0000    0.0000 C.ar    1  UNL1        0.0001
      8 C           0.0000    0.0000    0.0000 C.ar    1  UNL1        0.0046
      9 C           0.0000    0.0000    0.0000 C.ar    1  UNL1        0.0564
     10 C           0.0000    0.0000    0.0000 C.2     1  UNL1        0.2810
     11 O           0.0000    0.0000    0.0000 O.2     1  UNL1       -0.2669
     12 N           0.0000    0.0000    0.0000 N.am    1  UNL1       -0.1077
     13 N           0.0000    0.0000    0.0000 N.3     1  UNL1       -0.1082
     14 C           0.0000    0.0000    0.0000 C.3     1  UNL1        0.1135
     15 C           0.0000    0.0000    0.0000 C.3     1  UNL1        0.0208
     16 C           0.0000    0.0000    0.0000 C.3     1  UNL1        0.0016
     17 C           0.0000    0.0000    0.0000 C.ar    1  UNL1        0.0046
     18 C           0.0000    0.0000    0.0000 C.ar    1  UNL1        0.0001
@<TRIPOS>BOND
     1     1     2    1
     2     2     3    2
     3     3     4    1
     4     4     5    2
     5     3     6    1
     6     6     7   ar
     7     7     8   ar
     8     8     9   ar
     9     9    10    1
    10    10    11    2
    11    10    12   am
    12    12    13    1
    13    13    14    1
    14    14    15    1
    15    15    16    1
    16     9    17   ar
    17    17    18   ar
    18     6    18   ar
