@<TRIPOS>MOLECULE
*****
 29 31 0 0 0
SMALL
GASTEIGER

@<TRIPOS>ATOM
      1 C           0.0000    0.0000    0.0000 C.2     1  UNL1        0.0048
      2 C           0.0000    0.0000    0.0000 C.2     1  UNL1        0.0580
      3 C           0.0000    0.0000    0.0000 C.2     1  UNL1        0.2493
      4 O           0.0000    0.0000    0.0000 O.2     1  UNL1       -0.2699
      5 N           0.0000    0.0000    0.0000 N.am    1  UNL1       -0.2726
      6 C           0.0000    0.0000    0.0000 C.3     1  UNL1        0.1152
      7 C           0.0000    0.0000    0.0000 C.3     1  UNL1        0.1152
      8 N           0.0000    0.0000    0.0000 N.am    1  UNL1       -0.2725
      9 C           0.0000    0.0000    0.0000 C.2     1  UNL1        0.2521
     10 O           0.0000    0.0000    0.0000 O.2     1  UNL1       -0.2698
     11 C           0.0000    0.0000    0.0000 C.ar    1  UNL1        0.0875
     12 C           0.0000    0.0000    0.0000 C.ar    1  UNL1        0.0084
     13 C           0.0000    0.0000    0.0000 C.ar    1  UNL1        0.0118
     14 C           0.0000    0.0000    0.0000 C.ar    1  UNL1        0.0122
     15 C           0.0000    0.0000    0.0000 C.ar    1  UNL1        0.0123
     16 C           0.0000    0.0000    0.0000 C.ar    1  UNL1        0.0577
     17 CL          0.0000    0.0000    0.0000 Cl      1  UNL1       -0.0822
     18 C           0.0000    0.0000    0.0000 C.ar    1  UNL1        0.0123
     19 C           0.0000    0.0000    0.0000 C.ar    1  UNL1        0.0123
     20 C           0.0000    0.0000    0.0000 C.ar    1  UNL1        0.0577
     21 CL          0.0000    0.0000    0.0000 Cl      1  UNL1       -0.0822
     22 C           0.0000    0.0000    0.0000 C.ar    1  UNL1        0.0607
     23 CL          0.0000    0.0000    0.0000 Cl      1  UNL1       -0.0821
     24 C           0.0000    0.0000    0.0000 C.ar    1  UNL1        0.0484
     25 C           0.0000    0.0000    0.0000 C.ar    1  UNL1        0.1439
     26 O           0.0000    0.0000    0.0000 O.3     1  UNL1       -0.4713
     27 C           0.0000    0.0000    0.0000 C.3     1  UNL1        0.2525
     28 C           0.0000    0.0000    0.0000 C.3     1  UNL1        0.1152
     29 C           0.0000    0.0000    0.0000 C.3     1  UNL1        0.1152
@<TRIPOS>BOND
     1     1     2    2
     2     2     3    1
     3     3     4    2
     4     3     5   am
     5     5     6    1
     6     6     7    1
     7     7     8    1
     8     8     9   am
     9     9    10    2
    10     9    11    1
    11    11    12   ar
    12    12    13   ar
    13    13    14    1
    14    14    15   ar
    15    15    16   ar
    16    16    17    1
    17    16    18   ar
    18    18    19   ar
    19    19    20   ar
    20    14    20   ar
    21    20    21    1
    22    13    22   ar
    23    22    23    1
    24    22    24   ar
    25    24    25   ar
    26    11    25   ar
    27    25    26    1
    28    26    27    1
    29     8    28    1
    30    28    29    1
    31     5    29    1
