@<TRIPOS>MOLECULE
*****
 30 33 0 0 0
SMALL
GASTEIGER

@<TRIPOS>ATOM
      1 O           0.0000    0.0000    0.0000 O.2     1  UNL1       -0.2680
      2 C           0.0000    0.0000    0.0000 C.2     1  UNL1        0.2705
      3 N           0.0000    0.0000    0.0000 N.am    1  UNL1       -0.1754
      4 C           0.0000    0.0000    0.0000 C.ar    1  UNL1        0.0739
      5 C           0.0000    0.0000    0.0000 C.ar    1  UNL1        0.0197
      6 C           0.0000    0.0000    0.0000 C.ar    1  UNL1        0.0385
      7 C           0.0000    0.0000    0.0000 C.ar    1  UNL1        0.1453
      8 O           0.0000    0.0000    0.0000 O.3     1  UNL1       -0.4184
      9 C           0.0000    0.0000    0.0000 C.3     1  UNL1        0.4893
     10 F           0.0000    0.0000    0.0000 F       1  UNL1       -0.1486
     11 F           0.0000    0.0000    0.0000 F       1  UNL1       -0.1486
     12 CL          0.0000    0.0000    0.0000 Cl      1  UNL1        0.0004
     13 C           0.0000    0.0000    0.0000 C.ar    1  UNL1        0.0385
     14 C           0.0000    0.0000    0.0000 C.ar    1  UNL1        0.0197
     15 C           0.0000    0.0000    0.0000 C.ar    1  UNL1        0.0747
     16 C           0.0000    0.0000    0.0000 C.ar    1  UNL1        0.1048
     17 N           0.0000    0.0000    0.0000 N.ar    1  UNL1       -0.2290
     18 C           0.0000    0.0000    0.0000 C.ar    1  UNL1        0.1331
     19 N           0.0000    0.0000    0.0000 N.pl3   1  UNL1       -0.2932
     20 C           0.0000    0.0000    0.0000 C.3     1  UNL1        0.0922
     21 C           0.0000    0.0000    0.0000 C.3     1  UNL1        0.0232
     22 C           0.0000    0.0000    0.0000 C.3     1  UNL1        0.0232
     23 C           0.0000    0.0000    0.0000 C.3     1  UNL1        0.0922
     24 C           0.0000    0.0000    0.0000 C.ar    1  UNL1        0.0512
     25 C           0.0000    0.0000    0.0000 C.ar    1  UNL1        0.1071
     26 C           0.0000    0.0000    0.0000 C.ar    1  UNL1        0.0435
     27 C           0.0000    0.0000    0.0000 C.ar    1  UNL1        0.1238
     28 N           0.0000    0.0000    0.0000 N.ar    1  UNL1       -0.1464
     29 N           0.0000    0.0000    0.0000 N.ar    1  UNL1       -0.1478
     30 C           0.0000    0.0000    0.0000 C.ar    1  UNL1        0.0105
@<TRIPOS>BOND
     1     1     2    2
     2     2     3   am
     3     3     4    1
     4     4     5   ar
     5     5     6   ar
     6     6     7   ar
     7     7     8    1
     8     8     9    1
     9     9    10    1
    10     9    11    1
    11     9    12    1
    12     7    13   ar
    13    13    14   ar
    14     4    14   ar
    15     2    15    1
    16    15    16   ar
    17    16    17   ar
    18    17    18   ar
    19    18    19    1
    20    19    20    1
    21    20    21    1
    22    21    22    1
    23    22    23    1
    24    19    23    1
    25    18    24   ar
    26    24    25    1
    27    25    26   ar
    28    26    27   ar
    29    27    28   ar
    30    28    29   ar
    31    25    29   ar
    32    24    30   ar
    33    15    30   ar
