@<TRIPOS>MOLECULE
*****
 33 36 0 0 0
SMALL
GASTEIGER

@<TRIPOS>ATOM
      1 C           0.0000    0.0000    0.0000 C.3     1  UNL1        0.2525
      2 O           0.0000    0.0000    0.0000 O.3     1  UNL1       -0.4701
      3 C           0.0000    0.0000    0.0000 C.ar    1  UNL1        0.1554
      4 C           0.0000    0.0000    0.0000 C.ar    1  UNL1        0.0575
      5 C           0.0000    0.0000    0.0000 C.ar    1  UNL1        0.0889
      6 N           0.0000    0.0000    0.0000 N.ar    1  UNL1       -0.2238
      7 C           0.0000    0.0000    0.0000 C.ar    1  UNL1        0.2001
      8 N           0.0000    0.0000    0.0000 N.ar    1  UNL1       -0.2072
      9 C           0.0000    0.0000    0.0000 C.ar    1  UNL1        0.1549
     10 N           0.0000    0.0000    0.0000 N.pl3   1  UNL1       -0.1940
     11 C           0.0000    0.0000    0.0000 C.ar    1  UNL1        0.0731
     12 C           0.0000    0.0000    0.0000 C.ar    1  UNL1        0.0189
     13 C           0.0000    0.0000    0.0000 C.ar    1  UNL1        0.0318
     14 C           0.0000    0.0000    0.0000 C.ar    1  UNL1        0.1507
     15 F           0.0000    0.0000    0.0000 F       1  UNL1       -0.2033
     16 C           0.0000    0.0000    0.0000 C.ar    1  UNL1        0.0863
     17 CL          0.0000    0.0000    0.0000 Cl      1  UNL1       -0.0799
     18 C           0.0000    0.0000    0.0000 C.ar    1  UNL1        0.0302
     19 C           0.0000    0.0000    0.0000 C.ar    1  UNL1        0.0526
     20 C           0.0000    0.0000    0.0000 C.ar    1  UNL1        0.0240
     21 C           0.0000    0.0000    0.0000 C.ar    1  UNL1        0.1077
     22 N           0.0000    0.0000    0.0000 N.am    1  UNL1       -0.1724
     23 C           0.0000    0.0000    0.0000 C.2     1  UNL1        0.2689
     24 O           0.0000    0.0000    0.0000 O.2     1  UNL1       -0.2680
     25 C           0.0000    0.0000    0.0000 C.2     1  UNL1        0.0566
     26 C           0.0000    0.0000    0.0000 C.2     1  UNL1       -0.0041
     27 C           0.0000    0.0000    0.0000 C.3     1  UNL1        0.0990
     28 N           0.0000    0.0000    0.0000 N.3     1  UNL1       -0.2690
     29 C           0.0000    0.0000    0.0000 C.3     1  UNL1        0.0724
     30 C           0.0000    0.0000    0.0000 C.3     1  UNL1        0.0174
     31 C           0.0000    0.0000    0.0000 C.3     1  UNL1        0.0029
     32 C           0.0000    0.0000    0.0000 C.3     1  UNL1        0.0174
     33 C           0.0000    0.0000    0.0000 C.3     1  UNL1        0.0724
@<TRIPOS>BOND
     1     1     2    1
     2     2     3    1
     3     3     4   ar
     4     4     5   ar
     5     5     6   ar
     6     6     7   ar
     7     7     8   ar
     8     8     9   ar
     9     9    10    1
    10    10    11    1
    11    11    12   ar
    12    12    13   ar
    13    13    14   ar
    14    14    15    1
    15    14    16   ar
    16    16    17    1
    17    16    18   ar
    18    11    18   ar
    19     9    19   ar
    20     5    19   ar
    21    19    20   ar
    22    20    21   ar
    23     3    21   ar
    24    21    22    1
    25    22    23   am
    26    23    24    2
    27    23    25    1
    28    25    26    2
    29    26    27    1
    30    27    28    1
    31    28    29    1
    32    29    30    1
    33    30    31    1
    34    31    32    1
    35    32    33    1
    36    28    33    1
