@<TRIPOS>MOLECULE
*****
 20 22 0 0 0
SMALL
GASTEIGER

@<TRIPOS>ATOM
      1 C           0.0000    0.0000    0.0000 C.3     1  UNL1        0.0310
      2 C           0.0000    0.0000    0.0000 C.ar    1  UNL1       -0.0218
      3 C           0.0000    0.0000    0.0000 C.ar    1  UNL1       -0.0027
      4 C           0.0000    0.0000    0.0000 C.ar    1  UNL1        0.0188
      5 C           0.0000    0.0000    0.0000 C.ar    1  UNL1        0.0824
      6 N           0.0000    0.0000    0.0000 N.ar    1  UNL1       -0.2335
      7 N           0.0000    0.0000    0.0000 N.ar    1  UNL1       -0.1604
      8 C           0.0000    0.0000    0.0000 C.ar    1  UNL1        0.1608
      9 C           0.0000    0.0000    0.0000 C.ar    1  UNL1        0.2958
     10 O           0.0000    0.0000    0.0000 O.2     1  UNL1       -0.2638
     11 N           0.0000    0.0000    0.0000 N.ar    1  UNL1       -0.2136
     12 C           0.0000    0.0000    0.0000 C.3     1  UNL1        0.1571
     13 N           0.0000    0.0000    0.0000 N.ar    1  UNL1       -0.1710
     14 C           0.0000    0.0000    0.0000 C.ar    1  UNL1        0.0818
     15 C           0.0000    0.0000    0.0000 C.3     1  UNL1        0.0540
     16 C           0.0000    0.0000    0.0000 C.ar    1  UNL1        0.0529
     17 C           0.0000    0.0000    0.0000 C.ar    1  UNL1        0.0637
     18 C           0.0000    0.0000    0.0000 C.3     1  UNL1        0.0522
     19 C           0.0000    0.0000    0.0000 C.ar    1  UNL1        0.0188
     20 C           0.0000    0.0000    0.0000 C.ar    1  UNL1       -0.0027
@<TRIPOS>BOND
     1     1     2    1
     2     2     3   ar
     3     3     4   ar
     4     4     5   ar
     5     5     6    1
     6     6     7   ar
     7     7     8   ar
     8     8     9   ar
     9     9    10    2
    10     9    11   ar
    11    11    12    1
    12    11    13   ar
    13    13    14   ar
    14    14    15    1
    15    14    16   ar
    16     8    16   ar
    17    16    17   ar
    18     6    17   ar
    19    17    18    1
    20     5    19   ar
    21    19    20   ar
    22     2    20   ar
