@<TRIPOS>MOLECULE
*****
 17 19 0 0 0
SMALL
GASTEIGER

@<TRIPOS>ATOM
      1 C           0.0000    0.0000    0.0000 C.ar    1  UNL1        0.0000
      2 C           0.0000    0.0000    0.0000 C.ar    1  UNL1        0.0000
      3 C           0.0000    0.0000    0.0000 C.ar    1  UNL1        0.0015
      4 C           0.0000    0.0000    0.0000 C.ar    1  UNL1        0.0182
      5 C           0.0000    0.0000    0.0000 C.ar    1  UNL1        0.0897
      6 C           0.0000    0.0000    0.0000 C.ar    1  UNL1        0.0572
      7 S           0.0000    0.0000    0.0000 S.2     1  UNL1       -0.0510
      8 C           0.0000    0.0000    0.0000 C.ar    1  UNL1        0.1632
      9 N           0.0000    0.0000    0.0000 N.pl3   1  UNL1       -0.2830
     10 C           0.0000    0.0000    0.0000 C.3     1  UNL1        0.1247
     11 C           0.0000    0.0000    0.0000 C.3     1  UNL1        0.1636
     12 O           0.0000    0.0000    0.0000 O.3     1  UNL1       -0.3501
     13 C           0.0000    0.0000    0.0000 C.3     1  UNL1        0.1636
     14 C           0.0000    0.0000    0.0000 C.3     1  UNL1        0.1247
     15 N           0.0000    0.0000    0.0000 N.ar    1  UNL1       -0.2240
     16 C           0.0000    0.0000    0.0000 C.ar    1  UNL1        0.0015
     17 C           0.0000    0.0000    0.0000 C.ar    1  UNL1        0.0000
@<TRIPOS>BOND
     1     1     2   ar
     2     2     3   ar
     3     3     4   ar
     4     4     5    1
     5     5     6   ar
     6     6     7   ar
     7     7     8   ar
     8     8     9    1
     9     9    10    1
    10    10    11    1
    11    11    12    1
    12    12    13    1
    13    13    14    1
    14     9    14    1
    15     8    15   ar
    16     5    15   ar
    17     4    16   ar
    18    16    17   ar
    19     1    17   ar
