@<TRIPOS>MOLECULE
*****
 25 28 0 0 0
SMALL
GASTEIGER

@<TRIPOS>ATOM
      1 O           0.0000    0.0000    0.0000 O.2     1  UNL1       -0.2865
      2 C           0.0000    0.0000    0.0000 C.2     1  UNL1        0.1980
      3 C           0.0000    0.0000    0.0000 C.ar    1  UNL1        0.0498
      4 C           0.0000    0.0000    0.0000 C.ar    1  UNL1        0.0072
      5 C           0.0000    0.0000    0.0000 C.ar    1  UNL1        0.0376
      6 C           0.0000    0.0000    0.0000 C.ar    1  UNL1        0.1461
      7 O           0.0000    0.0000    0.0000 O.3     1  UNL1       -0.4535
      8 C           0.0000    0.0000    0.0000 C.ar    1  UNL1        0.1453
      9 C           0.0000    0.0000    0.0000 C.ar    1  UNL1        0.0375
     10 C           0.0000    0.0000    0.0000 C.ar    1  UNL1        0.0031
     11 C           0.0000    0.0000    0.0000 C.ar    1  UNL1        0.0002
     12 C           0.0000    0.0000    0.0000 C.ar    1  UNL1        0.0031
     13 C           0.0000    0.0000    0.0000 C.ar    1  UNL1        0.0375
     14 C           0.0000    0.0000    0.0000 C.ar    1  UNL1        0.0490
     15 C           0.0000    0.0000    0.0000 C.ar    1  UNL1        0.0638
     16 CL          0.0000    0.0000    0.0000 Cl      1  UNL1       -0.0820
     17 C           0.0000    0.0000    0.0000 C.ar    1  UNL1        0.0626
     18 C           0.0000    0.0000    0.0000 C.ar    1  UNL1        0.1039
     19 N           0.0000    0.0000    0.0000 N.ar    1  UNL1       -0.2249
     20 C           0.0000    0.0000    0.0000 C.ar    1  UNL1        0.1657
     21 N           0.0000    0.0000    0.0000 N.ar    1  UNL1       -0.2048
     22 C           0.0000    0.0000    0.0000 C.ar    1  UNL1        0.2003
     23 N           0.0000    0.0000    0.0000 N.ar    1  UNL1       -0.2223
     24 C           0.0000    0.0000    0.0000 C.ar    1  UNL1        0.1038
     25 C           0.0000    0.0000    0.0000 C.ar    1  UNL1        0.0596
@<TRIPOS>BOND
     1     1     2    2
     2     2     3    1
     3     3     4   ar
     4     4     5   ar
     5     5     6   ar
     6     6     7    1
     7     7     8    1
     8     8     9   ar
     9     9    10   ar
    10    10    11   ar
    11    11    12   ar
    12    12    13   ar
    13     8    13   ar
    14     6    14   ar
    15    14    15   ar
    16     3    15   ar
    17    15    16    1
    18     2    17    1
    19    17    18   ar
    20    18    19   ar
    21    19    20   ar
    22    20    21   ar
    23    21    22   ar
    24    22    23   ar
    25    23    24   ar
    26    24    25   ar
    27    17    25   ar
    28    20    25   ar
