@<TRIPOS>MOLECULE
*****
 30 33 0 0 0
SMALL
GASTEIGER

@<TRIPOS>ATOM
      1 O           0.0000    0.0000    0.0000 O.2     1  UNL1       -0.2679
      2 C           0.0000    0.0000    0.0000 C.2     1  UNL1        0.2714
      3 N           0.0000    0.0000    0.0000 N.am    1  UNL1       -0.1407
      4 C           0.0000    0.0000    0.0000 C.ar    1  UNL1        0.2244
      5 N           0.0000    0.0000    0.0000 N.ar    1  UNL1       -0.2120
      6 C           0.0000    0.0000    0.0000 C.ar    1  UNL1        0.1000
      7 C           0.0000    0.0000    0.0000 C.ar    1  UNL1        0.0207
      8 C           0.0000    0.0000    0.0000 C.ar    1  UNL1        0.0016
      9 C           0.0000    0.0000    0.0000 C.ar    1  UNL1        0.0016
     10 C           0.0000    0.0000    0.0000 C.ar    1  UNL1        0.0188
     11 C           0.0000    0.0000    0.0000 C.ar    1  UNL1        0.0798
     12 N           0.0000    0.0000    0.0000 N.ar    1  UNL1       -0.3000
     13 C           0.0000    0.0000    0.0000 C.3     1  UNL1        0.0881
     14 C           0.0000    0.0000    0.0000 C.3     1  UNL1        0.0227
     15 C           0.0000    0.0000    0.0000 C.3     1  UNL1        0.0045
     16 C           0.0000    0.0000    0.0000 C.3     1  UNL1        0.0331
     17 C           0.0000    0.0000    0.0000 C.3     1  UNL1        0.1820
     18 O           0.0000    0.0000    0.0000 O.3     1  UNL1       -0.2204
     19 C           0.0000    0.0000    0.0000 C.3     1  UNL1        0.0045
     20 C           0.0000    0.0000    0.0000 C.3     1  UNL1        0.0227
     21 C           0.0000    0.0000    0.0000 C.ar    1  UNL1        0.0554
     22 C           0.0000    0.0000    0.0000 C.ar    1  UNL1        0.0046
     23 C           0.0000    0.0000    0.0000 C.ar    1  UNL1        0.0001
     24 C           0.0000    0.0000    0.0000 C.ar    1  UNL1        0.0039
     25 C           0.0000    0.0000    0.0000 C.ar    1  UNL1        0.0716
     26 C           0.0000    0.0000    0.0000 C.3     1  UNL1        0.4186
     27 F           0.0000    0.0000    0.0000 F       1  UNL1       -0.1659
     28 F           0.0000    0.0000    0.0000 F       1  UNL1       -0.1659
     29 F           0.0000    0.0000    0.0000 F       1  UNL1       -0.1659
     30 C           0.0000    0.0000    0.0000 C.ar    1  UNL1        0.0084
@<TRIPOS>BOND
     1     1     2    2
     2     2     3   am
     3     3     4    1
     4     4     5   ar
     5     5     6   ar
     6     6     7   ar
     7     7     8   ar
     8     8     9   ar
     9     9    10   ar
    10    10    11   ar
    11     6    11   ar
    12    11    12   ar
    13     4    12   ar
    14    12    13    1
    15    13    14    1
    16    14    15    1
    17    15    16    1
    18    16    17    1
    19    17    18    1
    20    16    19    1
    21    19    20    1
    22    13    20    1
    23     2    21    1
    24    21    22   ar
    25    22    23   ar
    26    23    24   ar
    27    24    25   ar
    28    25    26    1
    29    26    27    1
    30    26    28    1
    31    26    29    1
    32    25    30   ar
    33    21    30   ar
