@<TRIPOS>MOLECULE
*****
 22 24 0 0 0
SMALL
GASTEIGER

@<TRIPOS>ATOM
      1 C           0.0000    0.0000    0.0000 C.3     1  UNL1        0.2525
      2 O           0.0000    0.0000    0.0000 O.3     1  UNL1       -0.4713
      3 C           0.0000    0.0000    0.0000 C.ar    1  UNL1        0.1418
      4 C           0.0000    0.0000    0.0000 C.ar    1  UNL1        0.0737
      5 C           0.0000    0.0000    0.0000 C.ar    1  UNL1        0.1418
      6 O           0.0000    0.0000    0.0000 O.3     1  UNL1       -0.4713
      7 C           0.0000    0.0000    0.0000 C.3     1  UNL1        0.2525
      8 C           0.0000    0.0000    0.0000 C.ar    1  UNL1        0.0372
      9 C           0.0000    0.0000    0.0000 C.ar    1  UNL1        0.0075
     10 C           0.0000    0.0000    0.0000 C.ar    1  UNL1        0.0177
     11 C           0.0000    0.0000    0.0000 C.ar    1  UNL1        0.0783
     12 N           0.0000    0.0000    0.0000 N.ar    1  UNL1       -0.2921
     13 C           0.0000    0.0000    0.0000 C.3     1  UNL1        0.1336
     14 C           0.0000    0.0000    0.0000 C.ar    1  UNL1        0.2624
     15 O           0.0000    0.0000    0.0000 O.2     1  UNL1       -0.2669
     16 C           0.0000    0.0000    0.0000 C.ar    1  UNL1        0.0753
     17 C           0.0000    0.0000    0.0000 C.ar    1  UNL1        0.1036
     18 N           0.0000    0.0000    0.0000 N.ar    1  UNL1       -0.2422
     19 C           0.0000    0.0000    0.0000 C.ar    1  UNL1        0.0989
     20 C           0.0000    0.0000    0.0000 C.ar    1  UNL1        0.0209
     21 C           0.0000    0.0000    0.0000 C.ar    1  UNL1        0.0091
     22 C           0.0000    0.0000    0.0000 C.ar    1  UNL1        0.0372
@<TRIPOS>BOND
     1     1     2    1
     2     2     3    1
     3     3     4   ar
     4     4     5   ar
     5     5     6    1
     6     6     7    1
     7     5     8   ar
     8     8     9   ar
     9     9    10    1
    10    10    11   ar
    11    11    12   ar
    12    12    13    1
    13    12    14   ar
    14    14    15    2
    15    14    16   ar
    16    16    17   ar
    17    17    18   ar
    18    18    19   ar
    19    19    20   ar
    20    20    21   ar
    21    10    21   ar
    22    16    21   ar
    23     9    22   ar
    24     3    22   ar
