@<TRIPOS>MOLECULE
*****
 25 27 0 0 0
SMALL
GASTEIGER

@<TRIPOS>ATOM
      1 C           0.0000    0.0000    0.0000 C.3     1  UNL1        0.0001
      2 C           0.0000    0.0000    0.0000 C.3     1  UNL1        0.0020
      3 C           0.0000    0.0000    0.0000 C.3     1  UNL1        0.0246
      4 C           0.0000    0.0000    0.0000 C.3     1  UNL1        0.1091
      5 N           0.0000    0.0000    0.0000 N.ar    1  UNL1       -0.2941
      6 C           0.0000    0.0000    0.0000 C.ar    1  UNL1        0.0783
      7 C           0.0000    0.0000    0.0000 C.ar    1  UNL1        0.0177
      8 C           0.0000    0.0000    0.0000 C.ar    1  UNL1        0.0075
      9 C           0.0000    0.0000    0.0000 C.ar    1  UNL1        0.0372
     10 C           0.0000    0.0000    0.0000 C.ar    1  UNL1        0.1418
     11 O           0.0000    0.0000    0.0000 O.3     1  UNL1       -0.4713
     12 C           0.0000    0.0000    0.0000 C.3     1  UNL1        0.2525
     13 C           0.0000    0.0000    0.0000 C.ar    1  UNL1        0.0737
     14 C           0.0000    0.0000    0.0000 C.ar    1  UNL1        0.1418
     15 O           0.0000    0.0000    0.0000 O.3     1  UNL1       -0.4713
     16 C           0.0000    0.0000    0.0000 C.3     1  UNL1        0.2525
     17 C           0.0000    0.0000    0.0000 C.ar    1  UNL1        0.0372
     18 C           0.0000    0.0000    0.0000 C.ar    1  UNL1        0.0091
     19 C           0.0000    0.0000    0.0000 C.ar    1  UNL1        0.0209
     20 C           0.0000    0.0000    0.0000 C.ar    1  UNL1        0.0989
     21 N           0.0000    0.0000    0.0000 N.ar    1  UNL1       -0.2422
     22 C           0.0000    0.0000    0.0000 C.ar    1  UNL1        0.1036
     23 C           0.0000    0.0000    0.0000 C.ar    1  UNL1        0.0753
     24 C           0.0000    0.0000    0.0000 C.ar    1  UNL1        0.2624
     25 O           0.0000    0.0000    0.0000 O.2     1  UNL1       -0.2669
@<TRIPOS>BOND
     1     1     2    1
     2     2     3    1
     3     3     4    1
     4     4     5    1
     5     5     6   ar
     6     6     7   ar
     7     7     8    1
     8     8     9   ar
     9     9    10   ar
    10    10    11    1
    11    11    12    1
    12    10    13   ar
    13    13    14   ar
    14    14    15    1
    15    15    16    1
    16    14    17   ar
    17     8    17   ar
    18     7    18   ar
    19    18    19   ar
    20    19    20   ar
    21    20    21   ar
    22    21    22   ar
    23    22    23   ar
    24    18    23   ar
    25    23    24   ar
    26     5    24   ar
    27    24    25    2
