@<TRIPOS>MOLECULE
*****
 27 29 0 0 0
SMALL
GASTEIGER

@<TRIPOS>ATOM
      1 C           0.0000    0.0000    0.0000 C.3     1  UNL1        0.0232
      2 C           0.0000    0.0000    0.0000 C.3     1  UNL1        0.0908
      3 N           0.0000    0.0000    0.0000 N.pl3   1  UNL1       -0.3091
      4 C           0.0000    0.0000    0.0000 C.ar    1  UNL1        0.0487
      5 C           0.0000    0.0000    0.0000 C.ar    1  UNL1        0.0153
      6 C           0.0000    0.0000    0.0000 C.ar    1  UNL1        0.0124
      7 C           0.0000    0.0000    0.0000 C.ar    1  UNL1        0.0791
      8 C           0.0000    0.0000    0.0000 C.1     1  UNL1        0.1013
      9 N           0.0000    0.0000    0.0000 N.1     1  UNL1       -0.1908
     10 C           0.0000    0.0000    0.0000 C.ar    1  UNL1        0.0685
     11 CL          0.0000    0.0000    0.0000 Cl      1  UNL1       -0.0815
     12 C           0.0000    0.0000    0.0000 C.ar    1  UNL1        0.0266
     13 C           0.0000    0.0000    0.0000 C.3     1  UNL1        0.0729
     14 C           0.0000    0.0000    0.0000 C.3     1  UNL1        0.0215
     15 C           0.0000    0.0000    0.0000 C.3     1  UNL1        0.0234
     16 C           0.0000    0.0000    0.0000 C.3     1  UNL1        0.0957
     17 N           0.0000    0.0000    0.0000 N.am    1  UNL1       -0.2034
     18 C           0.0000    0.0000    0.0000 C.2     1  UNL1        0.2647
     19 O           0.0000    0.0000    0.0000 O.2     1  UNL1       -0.2684
     20 C           0.0000    0.0000    0.0000 C.ar    1  UNL1        0.0550
     21 C           0.0000    0.0000    0.0000 C.ar    1  UNL1        0.0046
     22 C           0.0000    0.0000    0.0000 C.ar    1  UNL1        0.0001
     23 C           0.0000    0.0000    0.0000 C.ar    1  UNL1        0.0000
     24 C           0.0000    0.0000    0.0000 C.ar    1  UNL1        0.0001
     25 C           0.0000    0.0000    0.0000 C.ar    1  UNL1        0.0046
     26 C           0.0000    0.0000    0.0000 C.3     1  UNL1        0.0234
     27 C           0.0000    0.0000    0.0000 C.3     1  UNL1        0.0215
@<TRIPOS>BOND
     1     1     2    1
     2     2     3    1
     3     3     4    1
     4     4     5   ar
     5     5     6   ar
     6     6     7   ar
     7     7     8    1
     8     8     9    3
     9     7    10   ar
    10    10    11    1
    11    10    12   ar
    12     4    12   ar
    13     3    13    1
    14    13    14    1
    15    14    15    1
    16    15    16    1
    17    16    17    1
    18    17    18   am
    19    18    19    2
    20    18    20    1
    21    20    21   ar
    22    21    22   ar
    23    22    23   ar
    24    23    24   ar
    25    24    25   ar
    26    20    25   ar
    27    16    26    1
    28    26    27    1
    29    13    27    1
