@<TRIPOS>MOLECULE
*****
 18 19 0 0 0
SMALL
GASTEIGER

@<TRIPOS>ATOM
      1 C           0.0000    0.0000    0.0000 C.3     1  UNL1        0.0238
      2 C           0.0000    0.0000    0.0000 C.3     1  UNL1        0.1013
      3 N           0.0000    0.0000    0.0000 N.am    1  UNL1       -0.2264
      4 C           0.0000    0.0000    0.0000 C.2     1  UNL1        0.3349
      5 O           0.0000    0.0000    0.0000 O.2     1  UNL1       -0.2499
      6 N           0.0000    0.0000    0.0000 N.am    1  UNL1       -0.1233
      7 C           0.0000    0.0000    0.0000 C.2     1  UNL1        0.2753
      8 O           0.0000    0.0000    0.0000 O.2     1  UNL1       -0.2678
      9 C           0.0000    0.0000    0.0000 C.ar    1  UNL1        0.0877
     10 C           0.0000    0.0000    0.0000 C.ar    1  UNL1        0.0149
     11 C           0.0000    0.0000    0.0000 C.ar    1  UNL1        0.0916
     12 C           0.0000    0.0000    0.0000 C.2     1  UNL1        0.2870
     13 N           0.0000    0.0000    0.0000 N.am    1  UNL1       -0.0836
     14 O           0.0000    0.0000    0.0000 O.2     1  UNL1       -0.2666
     15 C           0.0000    0.0000    0.0000 C.ar    1  UNL1        0.1755
     16 N           0.0000    0.0000    0.0000 N.pl3   1  UNL1       -0.1070
     17 N           0.0000    0.0000    0.0000 N.ar    1  UNL1       -0.2120
     18 C           0.0000    0.0000    0.0000 C.ar    1  UNL1        0.1445
@<TRIPOS>BOND
     1     1     2    1
     2     2     3    1
     3     3     4   am
     4     4     5    2
     5     4     6    1
     6     6     7    1
     7     7     8    2
     8     7     9    1
     9     9    10   ar
    10    10    11   ar
    11    11    12    1
    12    12    13   am
    13    12    14    2
    14    11    15   ar
    15    15    16    1
    16    15    17   ar
    17    17    18   ar
    18     9    18   ar
    19     3    18    1
