@<TRIPOS>MOLECULE
*****
 29 32 0 0 0
SMALL
GASTEIGER

@<TRIPOS>ATOM
      1 C           0.0000    0.0000    0.0000 C.3     1  UNL1        0.0049
      2 C           0.0000    0.0000    0.0000 C.3     1  UNL1        0.0293
      3 C           0.0000    0.0000    0.0000 C.3     1  UNL1        0.0436
      4 C           0.0000    0.0000    0.0000 C.3     1  UNL1        0.1917
      5 O           0.0000    0.0000    0.0000 O.3     1  UNL1       -0.2167
      6 C           0.0000    0.0000    0.0000 C.ar    1  UNL1        0.0896
      7 N           0.0000    0.0000    0.0000 N.ar    1  UNL1       -0.2261
      8 C           0.0000    0.0000    0.0000 C.ar    1  UNL1        0.1998
      9 N           0.0000    0.0000    0.0000 N.ar    1  UNL1       -0.2093
     10 C           0.0000    0.0000    0.0000 C.ar    1  UNL1        0.1307
     11 N           0.0000    0.0000    0.0000 N.pl3   1  UNL1       -0.2899
     12 C           0.0000    0.0000    0.0000 C.3     1  UNL1        0.1137
     13 C           0.0000    0.0000    0.0000 C.3     1  UNL1        0.1149
     14 N           0.0000    0.0000    0.0000 N.am    1  UNL1       -0.2757
     15 C           0.0000    0.0000    0.0000 C.2     1  UNL1        0.2308
     16 O           0.0000    0.0000    0.0000 O.2     1  UNL1       -0.2745
     17 C           0.0000    0.0000    0.0000 C.3     1  UNL1        0.1179
     18 C           0.0000    0.0000    0.0000 C.3     1  UNL1        0.1227
     19 N           0.0000    0.0000    0.0000 N.3     1  UNL1       -0.1305
     20 C           0.0000    0.0000    0.0000 C.ar    1  UNL1       -0.0124
     21 C           0.0000    0.0000    0.0000 C.ar    1  UNL1       -0.0029
     22 C           0.0000    0.0000    0.0000 C.ar    1  UNL1        0.0111
     23 C           0.0000    0.0000    0.0000 C.ar    1  UNL1        0.0577
     24 CL          0.0000    0.0000    0.0000 Cl      1  UNL1       -0.0822
     25 C           0.0000    0.0000    0.0000 C.ar    1  UNL1        0.0111
     26 C           0.0000    0.0000    0.0000 C.ar    1  UNL1       -0.0029
     27 C           0.0000    0.0000    0.0000 C.3     1  UNL1        0.1149
     28 C           0.0000    0.0000    0.0000 C.3     1  UNL1        0.1137
     29 C           0.0000    0.0000    0.0000 C.ar    1  UNL1        0.0252
@<TRIPOS>BOND
     1     1     2    1
     2     2     3    1
     3     3     4    1
     4     4     5    1
     5     4     6    1
     6     6     7   ar
     7     7     8   ar
     8     8     9   ar
     9     9    10   ar
    10    10    11    1
    11    11    12    1
    12    12    13    1
    13    13    14    1
    14    14    15   am
    15    15    16    2
    16    15    17    1
    17    17    18    1
    18    18    19    1
    19    17    20    1
    20    20    21   ar
    21    21    22   ar
    22    22    23   ar
    23    23    24    1
    24    23    25   ar
    25    25    26   ar
    26    20    26   ar
    27    14    27    1
    28    27    28    1
    29    11    28    1
    30    10    29   ar
    31     6    29   ar
    32     2    29    1
