@<TRIPOS>MOLECULE
*****
 35 37 0 0 0
SMALL
GASTEIGER

@<TRIPOS>ATOM
      1 C           0.0000    0.0000    0.0000 C.3     1  UNL1        0.0232
      2 C           0.0000    0.0000    0.0000 C.3     1  UNL1        0.0908
      3 N           0.0000    0.0000    0.0000 N.pl3   1  UNL1       -0.3074
      4 C           0.0000    0.0000    0.0000 C.3     1  UNL1        0.0908
      5 C           0.0000    0.0000    0.0000 C.3     1  UNL1        0.0232
      6 C           0.0000    0.0000    0.0000 C.ar    1  UNL1        0.0510
      7 C           0.0000    0.0000    0.0000 C.ar    1  UNL1        0.0161
      8 C           0.0000    0.0000    0.0000 C.ar    1  UNL1        0.0209
      9 C           0.0000    0.0000    0.0000 C.ar    1  UNL1        0.1060
     10 N           0.0000    0.0000    0.0000 N.pl3   1  UNL1       -0.1910
     11 C           0.0000    0.0000    0.0000 C.ar    1  UNL1        0.1531
     12 C           0.0000    0.0000    0.0000 C.ar    1  UNL1        0.0526
     13 C           0.0000    0.0000    0.0000 C.ar    1  UNL1        0.0787
     14 N           0.0000    0.0000    0.0000 N.pl3   1  UNL1       -0.2122
     15 C           0.0000    0.0000    0.0000 C.ar    1  UNL1        0.0749
     16 C           0.0000    0.0000    0.0000 C.ar    1  UNL1        0.0167
     17 C           0.0000    0.0000    0.0000 C.ar    1  UNL1        0.0013
     18 C           0.0000    0.0000    0.0000 C.ar    1  UNL1        0.0002
     19 C           0.0000    0.0000    0.0000 C.ar    1  UNL1        0.0059
     20 C           0.0000    0.0000    0.0000 C.ar    1  UNL1        0.0702
     21 C           0.0000    0.0000    0.0000 C.2     1  UNL1        0.2661
     22 O           0.0000    0.0000    0.0000 O.2     1  UNL1       -0.2683
     23 N           0.0000    0.0000    0.0000 N.am    1  UNL1       -0.1997
     24 C           0.0000    0.0000    0.0000 C.3     1  UNL1        0.1388
     25 C           0.0000    0.0000    0.0000 C.ar    1  UNL1        0.1058
     26 C           0.0000    0.0000    0.0000 C.3     1  UNL1        0.4212
     27 F           0.0000    0.0000    0.0000 F       1  UNL1       -0.1658
     28 F           0.0000    0.0000    0.0000 F       1  UNL1       -0.1658
     29 F           0.0000    0.0000    0.0000 F       1  UNL1       -0.1658
     30 C           0.0000    0.0000    0.0000 C.ar    1  UNL1        0.1055
     31 N           0.0000    0.0000    0.0000 N.ar    1  UNL1       -0.2274
     32 C           0.0000    0.0000    0.0000 C.ar    1  UNL1        0.1551
     33 O           0.0000    0.0000    0.0000 O.3     1  UNL1       -0.4701
     34 C           0.0000    0.0000    0.0000 C.3     1  UNL1        0.2525
     35 C           0.0000    0.0000    0.0000 C.ar    1  UNL1        0.0527
@<TRIPOS>BOND
     1     1     2    1
     2     2     3    1
     3     3     4    1
     4     4     5    1
     5     3     6    1
     6     6     7   ar
     7     7     8   ar
     8     8     9   ar
     9     9    10    1
    10    10    11    1
    11    11    12   ar
    12    12    13   ar
    13    13    14    1
    14    14    15    1
    15    15    16   ar
    16    16    17   ar
    17    17    18   ar
    18    18    19   ar
    19    19    20   ar
    20    15    20   ar
    21    20    21    1
    22    21    22    2
    23    21    23   am
    24    23    24    1
    25    13    25   ar
    26    25    26    1
    27    26    27    1
    28    26    28    1
    29    26    29    1
    30    25    30   ar
    31    30    31   ar
    32    11    31   ar
    33     9    32   ar
    34    32    33    1
    35    33    34    1
    36    32    35   ar
    37     6    35   ar
