@<TRIPOS>MOLECULE
*****
 4 3 0 0 0
SMALL
GASTEIGER

@<TRIPOS>ATOM
      1 O           0.0000    0.0000    0.0000 O.2     1  UNL1       -0.5347
      2 C           0.0000    0.0000    0.0000 C.2     1  UNL1        0.1334
      3 N           0.0000    0.0000    0.0000 N.am    1  UNL1       -0.1964
      4 O           0.0000    0.0000    0.0000 O.3     1  UNL1       -0.4023
@<TRIPOS>BOND
     1     1     2    2
     2     2     3   am
     3     3     4    1
