@<TRIPOS>MOLECULE
*****
 33 37 0 0 0
SMALL
GASTEIGER

@<TRIPOS>ATOM
      1 C           0.0000    0.0000    0.0000 C.3     1  UNL1        0.0774
      2 C           0.0000    0.0000    0.0000 C.2     1  UNL1        0.1778
      3 O           0.0000    0.0000    0.0000 O.2     1  UNL1       -0.2912
      4 C           0.0000    0.0000    0.0000 C.ar    1  UNL1        0.0870
      5 C           0.0000    0.0000    0.0000 C.ar    1  UNL1       -0.0101
      6 C           0.0000    0.0000    0.0000 C.3     1  UNL1        0.0314
      7 C           0.0000    0.0000    0.0000 C.ar    1  UNL1        0.0498
      8 C           0.0000    0.0000    0.0000 C.ar    1  UNL1        0.1045
      9 N           0.0000    0.0000    0.0000 N.ar    1  UNL1       -0.2105
     10 C           0.0000    0.0000    0.0000 C.ar    1  UNL1        0.2435
     11 N           0.0000    0.0000    0.0000 N.pl3   1  UNL1       -0.1588
     12 C           0.0000    0.0000    0.0000 C.ar    1  UNL1        0.1548
     13 C           0.0000    0.0000    0.0000 C.ar    1  UNL1        0.0375
     14 C           0.0000    0.0000    0.0000 C.ar    1  UNL1        0.0190
     15 C           0.0000    0.0000    0.0000 C.ar    1  UNL1        0.0675
     16 N           0.0000    0.0000    0.0000 N.pl3   1  UNL1       -0.3033
     17 C           0.0000    0.0000    0.0000 C.3     1  UNL1        0.1096
     18 C           0.0000    0.0000    0.0000 C.3     1  UNL1        0.1101
     19 N           0.0000    0.0000    0.0000 N.3     1  UNL1       -0.2144
     20 C           0.0000    0.0000    0.0000 C.3     1  UNL1        0.1101
     21 C           0.0000    0.0000    0.0000 C.3     1  UNL1        0.1096
     22 C           0.0000    0.0000    0.0000 C.ar    1  UNL1        0.1148
     23 N           0.0000    0.0000    0.0000 N.ar    1  UNL1       -0.2260
     24 N           0.0000    0.0000    0.0000 N.ar    1  UNL1       -0.1946
     25 C           0.0000    0.0000    0.0000 C.ar    1  UNL1        0.1501
     26 N           0.0000    0.0000    0.0000 N.ar    1  UNL1       -0.2824
     27 C           0.0000    0.0000    0.0000 C.3     1  UNL1        0.0898
     28 C           0.0000    0.0000    0.0000 C.3     1  UNL1        0.0227
     29 C           0.0000    0.0000    0.0000 C.3     1  UNL1        0.0020
     30 C           0.0000    0.0000    0.0000 C.3     1  UNL1        0.0020
     31 C           0.0000    0.0000    0.0000 C.3     1  UNL1        0.0227
     32 C           0.0000    0.0000    0.0000 C.ar    1  UNL1        0.2643
     33 O           0.0000    0.0000    0.0000 O.2     1  UNL1       -0.2668
@<TRIPOS>BOND
     1     1     2    1
     2     2     3    2
     3     2     4    1
     4     4     5   ar
     5     5     6    1
     6     5     7   ar
     7     7     8   ar
     8     8     9   ar
     9     9    10   ar
    10    10    11    1
    11    11    12    1
    12    12    13   ar
    13    13    14   ar
    14    14    15   ar
    15    15    16    1
    16    16    17    1
    17    17    18    1
    18    18    19    1
    19    19    20    1
    20    20    21    1
    21    16    21    1
    22    15    22   ar
    23    22    23   ar
    24    12    23   ar
    25    10    24   ar
    26    24    25   ar
    27     7    25   ar
    28    25    26   ar
    29    26    27    1
    30    27    28    1
    31    28    29    1
    32    29    30    1
    33    30    31    1
    34    27    31    1
    35    26    32   ar
    36     4    32   ar
    37    32    33    2
