@<TRIPOS>MOLECULE
*****
 32 35 0 0 0
SMALL
GASTEIGER

@<TRIPOS>ATOM
      1 C           0.0000    0.0000    0.0000 C.3     1  UNL1        0.0897
      2 N           0.0000    0.0000    0.0000 N.3     1  UNL1       -0.2690
      3 C           0.0000    0.0000    0.0000 C.3     1  UNL1        0.0915
      4 C           0.0000    0.0000    0.0000 C.3     1  UNL1        0.1131
      5 N           0.0000    0.0000    0.0000 N.3     1  UNL1       -0.1527
      6 S           0.0000    0.0000    0.0000 S.O2    1  UNL1        0.0634
      7 O           0.0000    0.0000    0.0000 O.2     1  UNL1       -0.1528
      8 O           0.0000    0.0000    0.0000 O.2     1  UNL1       -0.1528
      9 C           0.0000    0.0000    0.0000 C.ar    1  UNL1        0.1222
     10 C           0.0000    0.0000    0.0000 C.ar    1  UNL1        0.0200
     11 C           0.0000    0.0000    0.0000 C.ar    1  UNL1        0.0029
     12 C           0.0000    0.0000    0.0000 C.ar    1  UNL1        0.0193
     13 C           0.0000    0.0000    0.0000 C.ar    1  UNL1        0.1006
     14 C           0.0000    0.0000    0.0000 C.ar    1  UNL1        0.1195
     15 N           0.0000    0.0000    0.0000 N.ar    1  UNL1       -0.2230
     16 C           0.0000    0.0000    0.0000 C.ar    1  UNL1        0.1921
     17 N           0.0000    0.0000    0.0000 N.pl3   1  UNL1       -0.1054
     18 C           0.0000    0.0000    0.0000 C.ar    1  UNL1        0.1711
     19 C           0.0000    0.0000    0.0000 C.2     1  UNL1        0.2896
     20 O           0.0000    0.0000    0.0000 O.2     1  UNL1       -0.2662
     21 N           0.0000    0.0000    0.0000 N.am    1  UNL1       -0.1725
     22 C           0.0000    0.0000    0.0000 C.ar    1  UNL1        0.0929
     23 C           0.0000    0.0000    0.0000 C.ar    1  UNL1        0.0198
     24 C           0.0000    0.0000    0.0000 C.ar    1  UNL1        0.0220
     25 C           0.0000    0.0000    0.0000 C.ar    1  UNL1        0.0990
     26 N           0.0000    0.0000    0.0000 N.ar    1  UNL1       -0.2410
     27 C           0.0000    0.0000    0.0000 C.ar    1  UNL1        0.1154
     28 N           0.0000    0.0000    0.0000 N.ar    1  UNL1       -0.2362
     29 C           0.0000    0.0000    0.0000 C.ar    1  UNL1        0.0029
     30 C           0.0000    0.0000    0.0000 C.ar    1  UNL1        0.0200
     31 C           0.0000    0.0000    0.0000 C.3     1  UNL1        0.1131
     32 C           0.0000    0.0000    0.0000 C.3     1  UNL1        0.0915
@<TRIPOS>BOND
     1     1     2    1
     2     2     3    1
     3     3     4    1
     4     4     5    1
     5     5     6    1
     6     6     7    2
     7     6     8    2
     8     6     9    1
     9     9    10   ar
    10    10    11   ar
    11    11    12   ar
    12    12    13    1
    13    13    14   ar
    14    14    15   ar
    15    15    16   ar
    16    16    17    1
    17    16    18   ar
    18    18    19    1
    19    19    20    2
    20    19    21   am
    21    21    22    1
    22    22    23   ar
    23    23    24   ar
    24    24    25   ar
    25    25    26   ar
    26    26    27   ar
    27    22    27   ar
    28    18    28   ar
    29    13    28   ar
    30    12    29   ar
    31    29    30   ar
    32     9    30   ar
    33     5    31    1
    34    31    32    1
    35     2    32    1
