@<TRIPOS>MOLECULE
*****
 33 37 0 0 0
SMALL
GASTEIGER

@<TRIPOS>ATOM
      1 N           0.0000    0.0000    0.0000 N.3     1  UNL1       -0.1329
      2 C           0.0000    0.0000    0.0000 C.3     1  UNL1        0.0919
      3 C           0.0000    0.0000    0.0000 C.3     1  UNL1        0.0208
      4 C           0.0000    0.0000    0.0000 C.3     1  UNL1        0.0231
      5 C           0.0000    0.0000    0.0000 C.3     1  UNL1        0.0941
      6 N           0.0000    0.0000    0.0000 N.pl3   1  UNL1       -0.2220
      7 C           0.0000    0.0000    0.0000 C.ar    1  UNL1        0.1523
      8 N           0.0000    0.0000    0.0000 N.ar    1  UNL1       -0.2074
      9 C           0.0000    0.0000    0.0000 C.ar    1  UNL1        0.2015
     10 N           0.0000    0.0000    0.0000 N.ar    1  UNL1       -0.2048
     11 C           0.0000    0.0000    0.0000 C.ar    1  UNL1        0.1669
     12 C           0.0000    0.0000    0.0000 C.ar    1  UNL1        0.0734
     13 C           0.0000    0.0000    0.0000 C.ar    1  UNL1        0.0638
     14 C           0.0000    0.0000    0.0000 C.2     1  UNL1        0.1981
     15 O           0.0000    0.0000    0.0000 O.2     1  UNL1       -0.2865
     16 C           0.0000    0.0000    0.0000 C.ar    1  UNL1        0.0498
     17 C           0.0000    0.0000    0.0000 C.ar    1  UNL1        0.0072
     18 C           0.0000    0.0000    0.0000 C.ar    1  UNL1        0.0376
     19 C           0.0000    0.0000    0.0000 C.ar    1  UNL1        0.1461
     20 O           0.0000    0.0000    0.0000 O.3     1  UNL1       -0.4535
     21 C           0.0000    0.0000    0.0000 C.ar    1  UNL1        0.1453
     22 C           0.0000    0.0000    0.0000 C.ar    1  UNL1        0.0375
     23 C           0.0000    0.0000    0.0000 C.ar    1  UNL1        0.0031
     24 C           0.0000    0.0000    0.0000 C.ar    1  UNL1        0.0002
     25 C           0.0000    0.0000    0.0000 C.ar    1  UNL1        0.0031
     26 C           0.0000    0.0000    0.0000 C.ar    1  UNL1        0.0375
     27 C           0.0000    0.0000    0.0000 C.ar    1  UNL1        0.0490
     28 C           0.0000    0.0000    0.0000 C.ar    1  UNL1        0.0638
     29 CL          0.0000    0.0000    0.0000 Cl      1  UNL1       -0.0820
     30 C           0.0000    0.0000    0.0000 C.ar    1  UNL1        0.1039
     31 N           0.0000    0.0000    0.0000 N.ar    1  UNL1       -0.2248
     32 C           0.0000    0.0000    0.0000 C.3     1  UNL1        0.0231
     33 C           0.0000    0.0000    0.0000 C.3     1  UNL1        0.0208
@<TRIPOS>BOND
     1     1     2    1
     2     2     3    1
     3     3     4    1
     4     4     5    1
     5     5     6    1
     6     6     7    1
     7     7     8   ar
     8     8     9   ar
     9     9    10   ar
    10    10    11   ar
    11    11    12   ar
    12     7    12   ar
    13    12    13   ar
    14    13    14    1
    15    14    15    2
    16    14    16    1
    17    16    17   ar
    18    17    18   ar
    19    18    19   ar
    20    19    20    1
    21    20    21    1
    22    21    22   ar
    23    22    23   ar
    24    23    24   ar
    25    24    25   ar
    26    25    26   ar
    27    21    26   ar
    28    19    27   ar
    29    27    28   ar
    30    16    28   ar
    31    28    29    1
    32    13    30   ar
    33    30    31   ar
    34    11    31   ar
    35     5    32    1
    36    32    33    1
    37     2    33    1
