@<TRIPOS>MOLECULE
*****
 37 41 0 0 0
SMALL
GASTEIGER

@<TRIPOS>ATOM
      1 C           0.0000    0.0000    0.0000 C.3     1  UNL1        0.2526
      2 O           0.0000    0.0000    0.0000 O.3     1  UNL1       -0.4682
      3 C           0.0000    0.0000    0.0000 C.ar    1  UNL1        0.1776
      4 C           0.0000    0.0000    0.0000 C.ar    1  UNL1        0.0448
      5 C           0.0000    0.0000    0.0000 C.ar    1  UNL1        0.0554
      6 C           0.0000    0.0000    0.0000 C.ar    1  UNL1        0.1484
      7 O           0.0000    0.0000    0.0000 O.3     1  UNL1       -0.4511
      8 C           0.0000    0.0000    0.0000 C.ar    1  UNL1        0.1726
      9 C           0.0000    0.0000    0.0000 C.ar    1  UNL1        0.0412
     10 C           0.0000    0.0000    0.0000 C.ar    1  UNL1        0.0199
     11 C           0.0000    0.0000    0.0000 C.ar    1  UNL1        0.0758
     12 N           0.0000    0.0000    0.0000 N.am    1  UNL1       -0.1788
     13 C           0.0000    0.0000    0.0000 C.2     1  UNL1        0.2530
     14 O           0.0000    0.0000    0.0000 O.2     1  UNL1       -0.2725
     15 C           0.0000    0.0000    0.0000 C.3     1  UNL1        0.1411
     16 C           0.0000    0.0000    0.0000 C.2     1  UNL1        0.2530
     17 O           0.0000    0.0000    0.0000 O.2     1  UNL1       -0.2725
     18 N           0.0000    0.0000    0.0000 N.am    1  UNL1       -0.1788
     19 C           0.0000    0.0000    0.0000 C.ar    1  UNL1        0.0735
     20 C           0.0000    0.0000    0.0000 C.ar    1  UNL1        0.0189
     21 C           0.0000    0.0000    0.0000 C.ar    1  UNL1        0.0310
     22 C           0.0000    0.0000    0.0000 C.ar    1  UNL1        0.1402
     23 F           0.0000    0.0000    0.0000 F       1  UNL1       -0.2042
     24 C           0.0000    0.0000    0.0000 C.ar    1  UNL1        0.0310
     25 C           0.0000    0.0000    0.0000 C.ar    1  UNL1        0.0189
     26 C           0.0000    0.0000    0.0000 C.3     1  UNL1        0.0185
     27 C           0.0000    0.0000    0.0000 C.3     1  UNL1        0.0185
     28 C           0.0000    0.0000    0.0000 C.ar    1  UNL1        0.0494
     29 C           0.0000    0.0000    0.0000 C.ar    1  UNL1        0.1757
     30 F           0.0000    0.0000    0.0000 F       1  UNL1       -0.2009
     31 C           0.0000    0.0000    0.0000 C.ar    1  UNL1        0.0581
     32 C           0.0000    0.0000    0.0000 C.ar    1  UNL1        0.1020
     33 N           0.0000    0.0000    0.0000 N.ar    1  UNL1       -0.2435
     34 C           0.0000    0.0000    0.0000 C.ar    1  UNL1        0.0876
     35 C           0.0000    0.0000    0.0000 C.ar    1  UNL1        0.0644
     36 C           0.0000    0.0000    0.0000 C.ar    1  UNL1        0.2308
     37 O           0.0000    0.0000    0.0000 O.3     1  UNL1       -0.2833
@<TRIPOS>BOND
     1     1     2    1
     2     2     3    1
     3     3     4   ar
     4     4     5   ar
     5     5     6   ar
     6     6     7    1
     7     7     8    1
     8     8     9   ar
     9     9    10   ar
    10    10    11   ar
    11    11    12    1
    12    12    13   am
    13    13    14    2
    14    13    15    1
    15    15    16    1
    16    16    17    2
    17    16    18   am
    18    18    19    1
    19    19    20   ar
    20    20    21   ar
    21    21    22   ar
    22    22    23    1
    23    22    24   ar
    24    24    25   ar
    25    19    25   ar
    26    15    26    1
    27    26    27    1
    28    15    27    1
    29    11    28   ar
    30    28    29   ar
    31     8    29   ar
    32    29    30    1
    33     6    31   ar
    34    31    32   ar
    35    32    33   ar
    36    33    34   ar
    37     5    34   ar
    38    34    35   ar
    39    35    36   ar
    40     3    36   ar
    41    36    37    1
