@<TRIPOS>MOLECULE
*****
 28 31 0 0 0
SMALL
GASTEIGER

@<TRIPOS>ATOM
      1 O           0.0000    0.0000    0.0000 O.2     1  UNL1       -0.2667
      2 C           0.0000    0.0000    0.0000 C.2     1  UNL1        0.2827
      3 N           0.0000    0.0000    0.0000 N.am    1  UNL1       -0.1976
      4 C           0.0000    0.0000    0.0000 C.3     1  UNL1        0.1497
      5 C           0.0000    0.0000    0.0000 C.3     1  UNL1        0.1894
      6 O           0.0000    0.0000    0.0000 O.3     1  UNL1       -0.2197
      7 C           0.0000    0.0000    0.0000 C.3     1  UNL1        0.1075
      8 N           0.0000    0.0000    0.0000 N.3     1  UNL1       -0.2664
      9 C           0.0000    0.0000    0.0000 C.3     1  UNL1        0.0771
     10 C           0.0000    0.0000    0.0000 C.3     1  UNL1        0.0434
     11 C           0.0000    0.0000    0.0000 C.ar    1  UNL1       -0.0234
     12 C           0.0000    0.0000    0.0000 C.ar    1  UNL1       -0.0045
     13 C           0.0000    0.0000    0.0000 C.ar    1  UNL1       -0.0003
     14 C           0.0000    0.0000    0.0000 C.ar    1  UNL1       -0.0003
     15 C           0.0000    0.0000    0.0000 C.ar    1  UNL1       -0.0032
     16 C           0.0000    0.0000    0.0000 C.ar    1  UNL1       -0.0101
     17 C           0.0000    0.0000    0.0000 C.3     1  UNL1        0.0989
     18 C           0.0000    0.0000    0.0000 C.ar    1  UNL1        0.1407
     19 C           0.0000    0.0000    0.0000 C.ar    1  UNL1        0.0596
     20 C           0.0000    0.0000    0.0000 C.ar    1  UNL1        0.1510
     21 N           0.0000    0.0000    0.0000 N.pl3   1  UNL1       -0.2190
     22 C           0.0000    0.0000    0.0000 C.3     1  UNL1        0.1287
     23 C           0.0000    0.0000    0.0000 C.3     1  UNL1        0.1118
     24 N           0.0000    0.0000    0.0000 N.3     1  UNL1       -0.2143
     25 C           0.0000    0.0000    0.0000 C.3     1  UNL1        0.1118
     26 N           0.0000    0.0000    0.0000 N.ar    1  UNL1       -0.2075
     27 C           0.0000    0.0000    0.0000 C.ar    1  UNL1        0.2002
     28 N           0.0000    0.0000    0.0000 N.ar    1  UNL1       -0.2192
@<TRIPOS>BOND
     1     1     2    2
     2     2     3   am
     3     3     4    1
     4     4     5    1
     5     5     6    1
     6     5     7    1
     7     7     8    1
     8     8     9    1
     9     9    10    1
    10    10    11    1
    11    11    12   ar
    12    12    13   ar
    13    13    14   ar
    14    14    15   ar
    15    15    16   ar
    16    11    16   ar
    17    16    17    1
    18     8    17    1
    19     2    18    1
    20    18    19   ar
    21    19    20   ar
    22    20    21    1
    23    21    22    1
    24    22    23    1
    25    23    24    1
    26    24    25    1
    27    22    25    1
    28    20    26   ar
    29    26    27   ar
    30    27    28   ar
    31    18    28   ar
