@<TRIPOS>MOLECULE
*****
 33 36 0 0 0
SMALL
GASTEIGER

@<TRIPOS>ATOM
      1 C           0.0000    0.0000    0.0000 C.3     1  UNL1        0.0233
      2 C           0.0000    0.0000    0.0000 C.3     1  UNL1        0.0926
      3 C           0.0000    0.0000    0.0000 C.3     1  UNL1        0.0233
      4 N           0.0000    0.0000    0.0000 N.pl3   1  UNL1       -0.2391
      5 C           0.0000    0.0000    0.0000 C.ar    1  UNL1        0.0742
      6 C           0.0000    0.0000    0.0000 C.ar    1  UNL1        0.0537
      7 C           0.0000    0.0000    0.0000 C.ar    1  UNL1        0.1501
      8 N           0.0000    0.0000    0.0000 N.ar    1  UNL1       -0.2752
      9 C           0.0000    0.0000    0.0000 C.ar    1  UNL1        0.0829
     10 C           0.0000    0.0000    0.0000 C.ar    1  UNL1        0.0221
     11 C           0.0000    0.0000    0.0000 C.ar    1  UNL1        0.0367
     12 C           0.0000    0.0000    0.0000 C.ar    1  UNL1        0.0149
     13 C           0.0000    0.0000    0.0000 C.ar    1  UNL1        0.0877
     14 C           0.0000    0.0000    0.0000 C.1     1  UNL1        0.1020
     15 N           0.0000    0.0000    0.0000 N.1     1  UNL1       -0.1908
     16 C           0.0000    0.0000    0.0000 C.ar    1  UNL1        0.1107
     17 N           0.0000    0.0000    0.0000 N.ar    1  UNL1       -0.2257
     18 C           0.0000    0.0000    0.0000 C.ar    1  UNL1        0.1488
     19 N           0.0000    0.0000    0.0000 N.ar    1  UNL1       -0.2261
     20 C           0.0000    0.0000    0.0000 C.ar    1  UNL1        0.1064
     21 C           0.0000    0.0000    0.0000 C.ar    1  UNL1        0.0891
     22 C           0.0000    0.0000    0.0000 C.2     1  UNL1        0.2675
     23 O           0.0000    0.0000    0.0000 O.2     1  UNL1       -0.2683
     24 N           0.0000    0.0000    0.0000 N.am    1  UNL1       -0.2034
     25 C           0.0000    0.0000    0.0000 C.3     1  UNL1        0.0957
     26 C           0.0000    0.0000    0.0000 C.3     1  UNL1        0.0222
     27 C           0.0000    0.0000    0.0000 C.3     1  UNL1        0.0109
     28 C           0.0000    0.0000    0.0000 C.3     1  UNL1        0.0800
     29 C           0.0000    0.0000    0.0000 C.2     1  UNL1        0.2603
     30 N           0.0000    0.0000    0.0000 N.am    1  UNL1       -0.0878
     31 O           0.0000    0.0000    0.0000 O.2     1  UNL1       -0.2717
     32 C           0.0000    0.0000    0.0000 C.3     1  UNL1        0.0109
     33 C           0.0000    0.0000    0.0000 C.3     1  UNL1        0.0222
@<TRIPOS>BOND
     1     1     2    1
     2     2     3    1
     3     2     4    1
     4     4     5    1
     5     5     6   ar
     6     6     7   ar
     7     7     8    1
     8     8     9   ar
     9     9    10   ar
    10    10    11   ar
    11    11    12   ar
    12    12    13   ar
    13    13    14    1
    14    14    15    3
    15    13    16   ar
    16    16    17   ar
    17    17    18   ar
    18    11    18   ar
    19     8    18   ar
    20     7    19   ar
    21    19    20   ar
    22    20    21   ar
    23     5    21   ar
    24    21    22    1
    25    22    23    2
    26    22    24   am
    27    24    25    1
    28    25    26    1
    29    26    27    1
    30    27    28    1
    31    28    29    1
    32    29    30   am
    33    29    31    2
    34    28    32    1
    35    32    33    1
    36    25    33    1
