@<TRIPOS>MOLECULE
*****
 29 32 0 0 0
SMALL
GASTEIGER

@<TRIPOS>ATOM
      1 C           0.0000    0.0000    0.0000 C.3     1  UNL1        0.2525
      2 O           0.0000    0.0000    0.0000 O.3     1  UNL1       -0.4713
      3 C           0.0000    0.0000    0.0000 C.ar    1  UNL1        0.1432
      4 C           0.0000    0.0000    0.0000 C.ar    1  UNL1        0.0664
      5 C           0.0000    0.0000    0.0000 C.ar    1  UNL1        0.1429
      6 F           0.0000    0.0000    0.0000 F       1  UNL1       -0.2043
      7 C           0.0000    0.0000    0.0000 C.ar    1  UNL1        0.0530
      8 C           0.0000    0.0000    0.0000 C.3     1  UNL1        0.1250
      9 C           0.0000    0.0000    0.0000 C.ar    1  UNL1        0.0739
     10 N           0.0000    0.0000    0.0000 N.ar    1  UNL1       -0.2483
     11 C           0.0000    0.0000    0.0000 C.ar    1  UNL1        0.0807
     12 C           0.0000    0.0000    0.0000 C.ar    1  UNL1        0.0191
     13 C           0.0000    0.0000    0.0000 C.ar    1  UNL1        0.0015
     14 C           0.0000    0.0000    0.0000 C.ar    1  UNL1        0.0001
     15 C           0.0000    0.0000    0.0000 C.ar    1  UNL1        0.0012
     16 C           0.0000    0.0000    0.0000 C.ar    1  UNL1        0.0149
     17 C           0.0000    0.0000    0.0000 C.ar    1  UNL1       -0.0042
     18 C           0.0000    0.0000    0.0000 C.3     1  UNL1        0.0436
     19 C           0.0000    0.0000    0.0000 C.3     1  UNL1        0.0626
     20 C           0.0000    0.0000    0.0000 C.3     1  UNL1        0.0177
     21 N           0.0000    0.0000    0.0000 N.3     1  UNL1       -0.2642
     22 C           0.0000    0.0000    0.0000 C.3     1  UNL1        0.1055
     23 C           0.0000    0.0000    0.0000 C.3     1  UNL1        0.1486
     24 C           0.0000    0.0000    0.0000 C.3     1  UNL1        0.0368
     25 C           0.0000    0.0000    0.0000 C.3     1  UNL1        0.0368
     26 F           0.0000    0.0000    0.0000 F       1  UNL1       -0.2386
     27 C           0.0000    0.0000    0.0000 C.ar    1  UNL1        0.1429
     28 F           0.0000    0.0000    0.0000 F       1  UNL1       -0.2043
     29 C           0.0000    0.0000    0.0000 C.ar    1  UNL1        0.0664
@<TRIPOS>BOND
     1     1     2    1
     2     2     3    1
     3     3     4   ar
     4     4     5   ar
     5     5     6    1
     6     5     7   ar
     7     7     8    1
     8     8     9    1
     9     9    10   ar
    10    10    11   ar
    11    11    12   ar
    12    12    13   ar
    13    13    14   ar
    14    14    15   ar
    15    15    16   ar
    16    11    16   ar
    17    16    17   ar
    18     9    17   ar
    19    17    18    1
    20    18    19    1
    21    19    20    1
    22    19    21    1
    23     8    21    1
    24    21    22    1
    25    22    23    1
    26    23    24    1
    27    23    25    1
    28    23    26    1
    29     7    27   ar
    30    27    28    1
    31    27    29   ar
    32     3    29   ar
