@<TRIPOS>MOLECULE
*****
 26 28 0 0 0
SMALL
GASTEIGER

@<TRIPOS>ATOM
      1 N           0.0000    0.0000    0.0000 N.1     1  UNL1       -0.1908
      2 C           0.0000    0.0000    0.0000 C.1     1  UNL1        0.1013
      3 C           0.0000    0.0000    0.0000 C.ar    1  UNL1        0.0792
      4 C           0.0000    0.0000    0.0000 C.ar    1  UNL1        0.0142
      5 C           0.0000    0.0000    0.0000 C.ar    1  UNL1        0.0376
      6 C           0.0000    0.0000    0.0000 C.ar    1  UNL1        0.1393
      7 O           0.0000    0.0000    0.0000 O.3     1  UNL1       -0.4791
      8 C           0.0000    0.0000    0.0000 C.3     1  UNL1        0.1660
      9 C           0.0000    0.0000    0.0000 C.3     1  UNL1        0.0436
     10 C           0.0000    0.0000    0.0000 C.3     1  UNL1        0.0055
     11 C           0.0000    0.0000    0.0000 C.3     1  UNL1        0.0218
     12 C           0.0000    0.0000    0.0000 C.3     1  UNL1        0.0957
     13 N           0.0000    0.0000    0.0000 N.am    1  UNL1       -0.2034
     14 C           0.0000    0.0000    0.0000 C.2     1  UNL1        0.2647
     15 O           0.0000    0.0000    0.0000 O.2     1  UNL1       -0.2684
     16 C           0.0000    0.0000    0.0000 C.ar    1  UNL1        0.0550
     17 C           0.0000    0.0000    0.0000 C.ar    1  UNL1        0.0046
     18 C           0.0000    0.0000    0.0000 C.ar    1  UNL1        0.0001
     19 C           0.0000    0.0000    0.0000 C.ar    1  UNL1        0.0000
     20 C           0.0000    0.0000    0.0000 C.ar    1  UNL1        0.0001
     21 C           0.0000    0.0000    0.0000 C.ar    1  UNL1        0.0046
     22 C           0.0000    0.0000    0.0000 C.3     1  UNL1        0.0254
     23 C           0.0000    0.0000    0.0000 C.3     1  UNL1        0.0453
     24 C           0.0000    0.0000    0.0000 C.ar    1  UNL1        0.0490
     25 C           0.0000    0.0000    0.0000 C.ar    1  UNL1        0.0703
     26 CL          0.0000    0.0000    0.0000 Cl      1  UNL1       -0.0814
@<TRIPOS>BOND
     1     1     2    3
     2     2     3    1
     3     3     4   ar
     4     4     5   ar
     5     5     6   ar
     6     6     7    1
     7     7     8    1
     8     8     9    1
     9     9    10    1
    10    10    11    1
    11    11    12    1
    12    12    13    1
    13    13    14   am
    14    14    15    2
    15    14    16    1
    16    16    17   ar
    17    17    18   ar
    18    18    19   ar
    19    19    20   ar
    20    20    21   ar
    21    16    21   ar
    22    12    22    1
    23    22    23    1
    24     8    23    1
    25     6    24   ar
    26    24    25   ar
    27     3    25   ar
    28    25    26    1
