@<TRIPOS>MOLECULE
*****
 26 29 0 0 0
SMALL
GASTEIGER

@<TRIPOS>ATOM
      1 N           0.0000    0.0000    0.0000 N.pl3   1  UNL1       -0.1040
      2 C           0.0000    0.0000    0.0000 C.ar    1  UNL1        0.2042
      3 N           0.0000    0.0000    0.0000 N.ar    1  UNL1       -0.1283
      4 N           0.0000    0.0000    0.0000 N.ar    1  UNL1       -0.1465
      5 C           0.0000    0.0000    0.0000 C.ar    1  UNL1        0.1073
      6 C           0.0000    0.0000    0.0000 C.ar    1  UNL1        0.0584
      7 C           0.0000    0.0000    0.0000 C.ar    1  UNL1        0.0047
      8 C           0.0000    0.0000    0.0000 C.ar    1  UNL1        0.0003
      9 C           0.0000    0.0000    0.0000 C.ar    1  UNL1        0.0033
     10 C           0.0000    0.0000    0.0000 C.ar    1  UNL1        0.0421
     11 C           0.0000    0.0000    0.0000 C.ar    1  UNL1        0.1972
     12 O           0.0000    0.0000    0.0000 O.3     1  UNL1       -0.2865
     13 C           0.0000    0.0000    0.0000 C.ar    1  UNL1        0.0385
     14 C           0.0000    0.0000    0.0000 C.ar    1  UNL1        0.0865
     15 N           0.0000    0.0000    0.0000 N.pl3   1  UNL1       -0.3051
     16 C           0.0000    0.0000    0.0000 C.3     1  UNL1        0.0912
     17 C           0.0000    0.0000    0.0000 C.3     1  UNL1        0.0258
     18 C           0.0000    0.0000    0.0000 C.3     1  UNL1        0.0257
     19 C           0.0000    0.0000    0.0000 C.ar    1  UNL1       -0.0224
     20 C           0.0000    0.0000    0.0000 C.ar    1  UNL1       -0.0043
     21 C           0.0000    0.0000    0.0000 C.ar    1  UNL1       -0.0003
     22 C           0.0000    0.0000    0.0000 C.ar    1  UNL1       -0.0000
     23 C           0.0000    0.0000    0.0000 C.ar    1  UNL1       -0.0003
     24 C           0.0000    0.0000    0.0000 C.ar    1  UNL1       -0.0043
     25 C           0.0000    0.0000    0.0000 C.3     1  UNL1        0.0258
     26 C           0.0000    0.0000    0.0000 C.3     1  UNL1        0.0912
@<TRIPOS>BOND
     1     1     2    1
     2     2     3   ar
     3     3     4   ar
     4     4     5   ar
     5     5     6    1
     6     6     7   ar
     7     7     8   ar
     8     8     9   ar
     9     9    10   ar
    10    10    11   ar
    11     6    11   ar
    12    11    12    1
    13     5    13   ar
    14    13    14   ar
    15     2    14   ar
    16    14    15    1
    17    15    16    1
    18    16    17    1
    19    17    18    1
    20    18    19    1
    21    19    20   ar
    22    20    21   ar
    23    21    22   ar
    24    22    23   ar
    25    23    24   ar
    26    19    24   ar
    27    18    25    1
    28    25    26    1
    29    15    26    1
