@<TRIPOS>MOLECULE
*****
 58 63 0 0 0
SMALL
GASTEIGER

@<TRIPOS>ATOM
      1 C           0.0000    0.0000    0.0000 C.3     1  UNL1        0.0243
      2 C           0.0000    0.0000    0.0000 C.3     1  UNL1        0.1037
      3 C           0.0000    0.0000    0.0000 C.3     1  UNL1        0.0837
      4 S           0.0000    0.0000    0.0000 S.3     1  UNL1       -0.1119
      5 C           0.0000    0.0000    0.0000 C.ar    1  UNL1        0.0253
      6 C           0.0000    0.0000    0.0000 C.ar    1  UNL1        0.0061
      7 C           0.0000    0.0000    0.0000 C.ar    1  UNL1        0.0005
      8 C           0.0000    0.0000    0.0000 C.ar    1  UNL1        0.0000
      9 C           0.0000    0.0000    0.0000 C.ar    1  UNL1        0.0005
     10 C           0.0000    0.0000    0.0000 C.ar    1  UNL1        0.0061
     11 N           0.0000    0.0000    0.0000 N.pl3   1  UNL1       -0.2372
     12 C           0.0000    0.0000    0.0000 C.ar    1  UNL1        0.0827
     13 C           0.0000    0.0000    0.0000 C.ar    1  UNL1        0.0188
     14 C           0.0000    0.0000    0.0000 C.ar    1  UNL1        0.0217
     15 C           0.0000    0.0000    0.0000 C.ar    1  UNL1        0.1285
     16 S           0.0000    0.0000    0.0000 S.O2    1  UNL1        0.0957
     17 O           0.0000    0.0000    0.0000 O.2     1  UNL1       -0.1482
     18 O           0.0000    0.0000    0.0000 O.2     1  UNL1       -0.1482
     19 N           0.0000    0.0000    0.0000 N.am    1  UNL1       -0.0549
     20 C           0.0000    0.0000    0.0000 C.2     1  UNL1        0.2857
     21 O           0.0000    0.0000    0.0000 O.2     1  UNL1       -0.2667
     22 C           0.0000    0.0000    0.0000 C.ar    1  UNL1        0.0567
     23 C           0.0000    0.0000    0.0000 C.ar    1  UNL1        0.0059
     24 C           0.0000    0.0000    0.0000 C.ar    1  UNL1        0.0147
     25 C           0.0000    0.0000    0.0000 C.ar    1  UNL1        0.0479
     26 N           0.0000    0.0000    0.0000 N.pl3   1  UNL1       -0.3046
     27 C           0.0000    0.0000    0.0000 C.3     1  UNL1        0.1081
     28 C           0.0000    0.0000    0.0000 C.3     1  UNL1        0.0941
     29 N           0.0000    0.0000    0.0000 N.3     1  UNL1       -0.2663
     30 C           0.0000    0.0000    0.0000 C.3     1  UNL1        0.0946
     31 C           0.0000    0.0000    0.0000 C.2     1  UNL1       -0.0323
     32 C           0.0000    0.0000    0.0000 C.2     1  UNL1       -0.0288
     33 C           0.0000    0.0000    0.0000 C.ar    1  UNL1       -0.0045
     34 C           0.0000    0.0000    0.0000 C.ar    1  UNL1        0.0005
     35 C           0.0000    0.0000    0.0000 C.ar    1  UNL1        0.0114
     36 C           0.0000    0.0000    0.0000 C.ar    1  UNL1        0.0577
     37 CL          0.0000    0.0000    0.0000 Cl      1  UNL1       -0.0822
     38 C           0.0000    0.0000    0.0000 C.ar    1  UNL1        0.0114
     39 C           0.0000    0.0000    0.0000 C.ar    1  UNL1        0.0005
     40 C           0.0000    0.0000    0.0000 C.3     1  UNL1        0.0258
     41 C           0.0000    0.0000    0.0000 C.3     1  UNL1        0.0050
     42 C           0.0000    0.0000    0.0000 C.3     1  UNL1        0.0041
     43 C           0.0000    0.0000    0.0000 C.3     1  UNL1        0.0003
     44 C           0.0000    0.0000    0.0000 C.3     1  UNL1        0.0003
     45 C           0.0000    0.0000    0.0000 C.3     1  UNL1        0.0231
     46 C           0.0000    0.0000    0.0000 C.3     1  UNL1        0.0941
     47 C           0.0000    0.0000    0.0000 C.3     1  UNL1        0.1081
     48 C           0.0000    0.0000    0.0000 C.ar    1  UNL1        0.0147
     49 C           0.0000    0.0000    0.0000 C.ar    1  UNL1        0.0059
     50 C           0.0000    0.0000    0.0000 C.ar    1  UNL1        0.0402
     51 C           0.0000    0.0000    0.0000 C.ar    1  UNL1        0.1303
     52 S           0.0000    0.0000    0.0000 S.O2    1  UNL1        0.0933
     53 O           0.0000    0.0000    0.0000 O.2     1  UNL1       -0.1611
     54 O           0.0000    0.0000    0.0000 O.2     1  UNL1       -0.1611
     55 C           0.0000    0.0000    0.0000 C.3     1  UNL1        0.5262
     56 F           0.0000    0.0000    0.0000 F       1  UNL1       -0.1500
     57 F           0.0000    0.0000    0.0000 F       1  UNL1       -0.1500
     58 F           0.0000    0.0000    0.0000 F       1  UNL1       -0.1500
@<TRIPOS>BOND
     1     1     2    1
     2     2     3    1
     3     3     4    1
     4     4     5    1
     5     5     6   ar
     6     6     7   ar
     7     7     8   ar
     8     8     9   ar
     9     9    10   ar
    10     5    10   ar
    11     2    11    1
    12    11    12    1
    13    12    13   ar
    14    13    14   ar
    15    14    15   ar
    16    15    16    1
    17    16    17    2
    18    16    18    2
    19    16    19    1
    20    19    20   am
    21    20    21    2
    22    20    22    1
    23    22    23   ar
    24    23    24   ar
    25    24    25   ar
    26    25    26    1
    27    26    27    1
    28    27    28    1
    29    28    29    1
    30    29    30    1
    31    30    31    1
    32    31    32    2
    33    32    33    1
    34    33    34   ar
    35    34    35   ar
    36    35    36   ar
    37    36    37    1
    38    36    38   ar
    39    38    39   ar
    40    33    39   ar
    41    32    40    1
    42    40    41    1
    43    41    42    1
    44    42    43    1
    45    42    44    1
    46    42    45    1
    47    31    45    1
    48    29    46    1
    49    46    47    1
    50    26    47    1
    51    25    48   ar
    52    48    49   ar
    53    22    49   ar
    54    15    50   ar
    55    50    51   ar
    56    12    51   ar
    57    51    52    1
    58    52    53    2
    59    52    54    2
    60    52    55    1
    61    55    56    1
    62    55    57    1
    63    55    58    1
