@<TRIPOS>MOLECULE
*****
 24 26 0 0 0
SMALL
GASTEIGER

@<TRIPOS>ATOM
      1 C           0.0000    0.0000    0.0000 C.3     1  UNL1        0.0001
      2 C           0.0000    0.0000    0.0000 C.3     1  UNL1        0.0020
      3 C           0.0000    0.0000    0.0000 C.3     1  UNL1        0.0246
      4 C           0.0000    0.0000    0.0000 C.3     1  UNL1        0.1091
      5 N           0.0000    0.0000    0.0000 N.ar    1  UNL1       -0.2941
      6 C           0.0000    0.0000    0.0000 C.ar    1  UNL1        0.0783
      7 C           0.0000    0.0000    0.0000 C.ar    1  UNL1        0.0177
      8 C           0.0000    0.0000    0.0000 C.ar    1  UNL1        0.0061
      9 C           0.0000    0.0000    0.0000 C.ar    1  UNL1        0.0331
     10 C           0.0000    0.0000    0.0000 C.ar    1  UNL1        0.1811
     11 F           0.0000    0.0000    0.0000 F       1  UNL1       -0.2007
     12 C           0.0000    0.0000    0.0000 C.ar    1  UNL1        0.2500
     13 O           0.0000    0.0000    0.0000 O.3     1  UNL1       -0.2817
     14 C           0.0000    0.0000    0.0000 C.ar    1  UNL1        0.1811
     15 F           0.0000    0.0000    0.0000 F       1  UNL1       -0.2007
     16 C           0.0000    0.0000    0.0000 C.ar    1  UNL1        0.0331
     17 C           0.0000    0.0000    0.0000 C.ar    1  UNL1        0.0091
     18 C           0.0000    0.0000    0.0000 C.ar    1  UNL1        0.0209
     19 C           0.0000    0.0000    0.0000 C.ar    1  UNL1        0.0989
     20 N           0.0000    0.0000    0.0000 N.ar    1  UNL1       -0.2422
     21 C           0.0000    0.0000    0.0000 C.ar    1  UNL1        0.1036
     22 C           0.0000    0.0000    0.0000 C.ar    1  UNL1        0.0753
     23 C           0.0000    0.0000    0.0000 C.ar    1  UNL1        0.2624
     24 O           0.0000    0.0000    0.0000 O.2     1  UNL1       -0.2669
@<TRIPOS>BOND
     1     1     2    1
     2     2     3    1
     3     3     4    1
     4     4     5    1
     5     5     6   ar
     6     6     7   ar
     7     7     8    1
     8     8     9   ar
     9     9    10   ar
    10    10    11    1
    11    10    12   ar
    12    12    13    1
    13    12    14   ar
    14    14    15    1
    15    14    16   ar
    16     8    16   ar
    17     7    17   ar
    18    17    18   ar
    19    18    19   ar
    20    19    20   ar
    21    20    21   ar
    22    21    22   ar
    23    17    22   ar
    24    22    23   ar
    25     5    23   ar
    26    23    24    2
