@<TRIPOS>MOLECULE
*****
 28 29 0 0 0
SMALL
GASTEIGER

@<TRIPOS>ATOM
      1 C           0.0000    0.0000    0.0000 C.3     1  UNL1        0.0444
      2 C           0.0000    0.0000    0.0000 C.3     1  UNL1        0.2184
      3 O           0.0000    0.0000    0.0000 O.3     1  UNL1       -0.2144
      4 C           0.0000    0.0000    0.0000 C.3     1  UNL1        0.1951
      5 S           0.0000    0.0000    0.0000 S.O2    1  UNL1        0.0116
      6 O           0.0000    0.0000    0.0000 O.2     1  UNL1       -0.1685
      7 O           0.0000    0.0000    0.0000 O.2     1  UNL1       -0.1685
      8 C           0.0000    0.0000    0.0000 C.ar    1  UNL1        0.1058
      9 C           0.0000    0.0000    0.0000 C.ar    1  UNL1        0.0183
     10 C           0.0000    0.0000    0.0000 C.ar    1  UNL1        0.0013
     11 C           0.0000    0.0000    0.0000 C.ar    1  UNL1        0.0001
     12 C           0.0000    0.0000    0.0000 C.ar    1  UNL1        0.0013
     13 C           0.0000    0.0000    0.0000 C.ar    1  UNL1        0.0183
     14 C           0.0000    0.0000    0.0000 C.2     1  UNL1        0.2748
     15 O           0.0000    0.0000    0.0000 O.2     1  UNL1       -0.2703
     16 N           0.0000    0.0000    0.0000 N.am    1  UNL1       -0.1771
     17 C           0.0000    0.0000    0.0000 C.ar    1  UNL1        0.0734
     18 C           0.0000    0.0000    0.0000 C.ar    1  UNL1        0.0173
     19 C           0.0000    0.0000    0.0000 C.ar    1  UNL1        0.0116
     20 C           0.0000    0.0000    0.0000 C.ar    1  UNL1        0.0724
     21 C           0.0000    0.0000    0.0000 C.1     1  UNL1        0.1004
     22 N           0.0000    0.0000    0.0000 N.1     1  UNL1       -0.1908
     23 C           0.0000    0.0000    0.0000 C.ar    1  UNL1        0.0823
     24 C           0.0000    0.0000    0.0000 C.3     1  UNL1        0.4192
     25 F           0.0000    0.0000    0.0000 F       1  UNL1       -0.1658
     26 F           0.0000    0.0000    0.0000 F       1  UNL1       -0.1658
     27 F           0.0000    0.0000    0.0000 F       1  UNL1       -0.1658
     28 C           0.0000    0.0000    0.0000 C.ar    1  UNL1        0.0211
@<TRIPOS>BOND
     1     1     2    1
     2     2     3    1
     3     2     4    1
     4     4     5    1
     5     5     6    2
     6     5     7    2
     7     5     8    1
     8     8     9   ar
     9     9    10   ar
    10    10    11   ar
    11    11    12   ar
    12    12    13   ar
    13     8    13   ar
    14     2    14    1
    15    14    15    2
    16    14    16   am
    17    16    17    1
    18    17    18   ar
    19    18    19   ar
    20    19    20   ar
    21    20    21    1
    22    21    22    3
    23    20    23   ar
    24    23    24    1
    25    24    25    1
    26    24    26    1
    27    24    27    1
    28    23    28   ar
    29    17    28   ar
