@<TRIPOS>MOLECULE
*****
 12 13 0 0 0
SMALL
GASTEIGER

@<TRIPOS>ATOM
      1 C           0.0000    0.0000    0.0000 C.2     1  UNL1        0.0000
      2 C           0.0000    0.0000    0.0000 C.2     1  UNL1        0.0013
      3 C           0.0000    0.0000    0.0000 C.ar    1  UNL1        0.0170
      4 C           0.0000    0.0000    0.0000 C.ar    1  UNL1        0.0811
      5 C           0.0000    0.0000    0.0000 C.2     1  UNL1        0.0206
      6 N           0.0000    0.0000    0.0000 N.ar    1  UNL1       -0.2456
      7 C           0.0000    0.0000    0.0000 C.ar    1  UNL1        0.0808
      8 C           0.0000    0.0000    0.0000 C.2     1  UNL1        0.0390
      9 C           0.0000    0.0000    0.0000 C.2     1  UNL1        0.0951
     10 N           0.0000    0.0000    0.0000 N.2     1  UNL1       -0.2640
     11 C           0.0000    0.0000    0.0000 C.3     1  UNL1        0.1534
     12 C           0.0000    0.0000    0.0000 C.ar    1  UNL1        0.0212
@<TRIPOS>BOND
     1     1     2    2
     2     2     3    1
     3     3     4   ar
     4     4     5    2
     5     4     6   ar
     6     6     7   ar
     7     7     8    2
     8     8     9    1
     9     9    10    2
    10    10    11    1
    11    11    12    1
    12     7    12   ar
    13     3    12   ar
