@<TRIPOS>MOLECULE
*****
 26 28 0 0 0
SMALL
GASTEIGER

@<TRIPOS>ATOM
      1 C           0.0000    0.0000    0.0000 C.3     1  UNL1        0.0538
      2 C           0.0000    0.0000    0.0000 C.ar    1  UNL1        0.0798
      3 C           0.0000    0.0000    0.0000 C.ar    1  UNL1        0.0286
      4 C           0.0000    0.0000    0.0000 C.3     1  UNL1        0.0354
      5 C           0.0000    0.0000    0.0000 C.ar    1  UNL1        0.1718
      6 N           0.0000    0.0000    0.0000 N.pl3   1  UNL1       -0.1740
      7 C           0.0000    0.0000    0.0000 C.ar    1  UNL1        0.1564
      8 N           0.0000    0.0000    0.0000 N.ar    1  UNL1       -0.2071
      9 C           0.0000    0.0000    0.0000 C.ar    1  UNL1        0.2001
     10 N           0.0000    0.0000    0.0000 N.ar    1  UNL1       -0.2238
     11 C           0.0000    0.0000    0.0000 C.ar    1  UNL1        0.0891
     12 C           0.0000    0.0000    0.0000 C.ar    1  UNL1        0.0626
     13 C           0.0000    0.0000    0.0000 C.ar    1  UNL1        0.2141
     14 O           0.0000    0.0000    0.0000 O.3     1  UNL1       -0.2851
     15 C           0.0000    0.0000    0.0000 C.ar    1  UNL1        0.1444
     16 S           0.0000    0.0000    0.0000 S.O2    1  UNL1        0.0085
     17 O           0.0000    0.0000    0.0000 O.2     1  UNL1       -0.1686
     18 O           0.0000    0.0000    0.0000 O.2     1  UNL1       -0.1686
     19 C           0.0000    0.0000    0.0000 C.3     1  UNL1        0.1152
     20 C           0.0000    0.0000    0.0000 C.3     1  UNL1        0.0240
     21 C           0.0000    0.0000    0.0000 C.3     1  UNL1        0.0240
     22 C           0.0000    0.0000    0.0000 C.3     1  UNL1        0.0240
     23 C           0.0000    0.0000    0.0000 C.ar    1  UNL1        0.0260
     24 C           0.0000    0.0000    0.0000 C.ar    1  UNL1        0.0526
     25 N           0.0000    0.0000    0.0000 N.ar    1  UNL1       -0.1317
     26 N           0.0000    0.0000    0.0000 N.ar    1  UNL1       -0.1514
@<TRIPOS>BOND
     1     1     2    1
     2     2     3   ar
     3     3     4    1
     4     3     5   ar
     5     5     6    1
     6     6     7    1
     7     7     8   ar
     8     8     9   ar
     9     9    10   ar
    10    10    11   ar
    11    11    12   ar
    12    12    13   ar
    13    13    14    1
    14    13    15   ar
    15    15    16    1
    16    16    17    2
    17    16    18    2
    18    16    19    1
    19    19    20    1
    20    19    21    1
    21    19    22    1
    22    15    23   ar
    23    23    24   ar
    24     7    24   ar
    25    11    24   ar
    26     5    25   ar
    27    25    26   ar
    28     2    26   ar
