@<TRIPOS>MOLECULE
*****
 29 33 0 0 0
SMALL
GASTEIGER

@<TRIPOS>ATOM
      1 C           0.0000    0.0000    0.0000 C.3     1  UNL1        0.0173
      2 C           0.0000    0.0000    0.0000 C.3     1  UNL1        0.0580
      3 C           0.0000    0.0000    0.0000 C.3     1  UNL1        0.0174
      4 C           0.0000    0.0000    0.0000 C.3     1  UNL1        0.0187
      5 C           0.0000    0.0000    0.0000 C.3     1  UNL1        0.0725
      6 N           0.0000    0.0000    0.0000 N.3     1  UNL1       -0.2676
      7 C           0.0000    0.0000    0.0000 C.3     1  UNL1        0.1388
      8 C           0.0000    0.0000    0.0000 C.ar    1  UNL1        0.1553
      9 N           0.0000    0.0000    0.0000 N.ar    1  UNL1       -0.2278
     10 C           0.0000    0.0000    0.0000 C.ar    1  UNL1        0.1004
     11 C           0.0000    0.0000    0.0000 C.ar    1  UNL1        0.0220
     12 C           0.0000    0.0000    0.0000 C.ar    1  UNL1        0.0183
     13 C           0.0000    0.0000    0.0000 C.ar    1  UNL1        0.0753
     14 N           0.0000    0.0000    0.0000 N.am    1  UNL1       -0.1754
     15 C           0.0000    0.0000    0.0000 C.2     1  UNL1        0.2690
     16 O           0.0000    0.0000    0.0000 O.2     1  UNL1       -0.2680
     17 C           0.0000    0.0000    0.0000 C.ar    1  UNL1        0.0555
     18 C           0.0000    0.0000    0.0000 C.ar    1  UNL1        0.0061
     19 C           0.0000    0.0000    0.0000 C.ar    1  UNL1        0.0189
     20 C           0.0000    0.0000    0.0000 C.ar    1  UNL1        0.0794
     21 C           0.0000    0.0000    0.0000 C.ar    1  UNL1        0.0383
     22 C           0.0000    0.0000    0.0000 C.ar    1  UNL1        0.0077
     23 C           0.0000    0.0000    0.0000 C.ar    1  UNL1        0.1216
     24 N           0.0000    0.0000    0.0000 N.ar    1  UNL1       -0.1676
     25 N           0.0000    0.0000    0.0000 N.ar    1  UNL1       -0.2488
     26 C           0.0000    0.0000    0.0000 C.3     1  UNL1        0.1537
     27 C           0.0000    0.0000    0.0000 C.ar    1  UNL1        0.0373
     28 C           0.0000    0.0000    0.0000 C.ar    1  UNL1        0.1016
     29 N           0.0000    0.0000    0.0000 N.ar    1  UNL1       -0.2277
@<TRIPOS>BOND
     1     1     2    1
     2     2     3    1
     3     3     4    1
     4     4     5    1
     5     5     6    1
     6     2     6    1
     7     6     7    1
     8     7     8    1
     9     8     9   ar
    10     9    10   ar
    11    10    11   ar
    12    11    12   ar
    13    12    13   ar
    14    13    14    1
    15    14    15   am
    16    15    16    2
    17    15    17    1
    18    17    18   ar
    19    18    19   ar
    20    19    20   ar
    21    20    21   ar
    22    21    22   ar
    23    17    22   ar
    24    21    23   ar
    25    23    24   ar
    26    24    25   ar
    27    20    25   ar
    28    25    26    1
    29    13    27   ar
    30    27    28   ar
    31    10    28   ar
    32    28    29   ar
    33     8    29   ar
