@<TRIPOS>MOLECULE
*****
 28 30 0 0 0
SMALL
GASTEIGER

@<TRIPOS>ATOM
      1 C           0.0000    0.0000    0.0000 C.3     1  UNL1        0.0296
      2 C           0.0000    0.0000    0.0000 C.3     1  UNL1        0.1327
      3 C           0.0000    0.0000    0.0000 C.3     1  UNL1        0.0296
      4 C           0.0000    0.0000    0.0000 C.2     1  UNL1        0.2507
      5 O           0.0000    0.0000    0.0000 O.2     1  UNL1       -0.2724
      6 N           0.0000    0.0000    0.0000 N.am    1  UNL1       -0.2184
      7 C           0.0000    0.0000    0.0000 C.ar    1  UNL1        0.0597
      8 C           0.0000    0.0000    0.0000 C.ar    1  UNL1        0.0160
      9 C           0.0000    0.0000    0.0000 C.ar    1  UNL1        0.0115
     10 C           0.0000    0.0000    0.0000 C.ar    1  UNL1        0.0724
     11 C           0.0000    0.0000    0.0000 C.1     1  UNL1        0.1004
     12 N           0.0000    0.0000    0.0000 N.1     1  UNL1       -0.1908
     13 C           0.0000    0.0000    0.0000 C.ar    1  UNL1        0.0823
     14 C           0.0000    0.0000    0.0000 C.3     1  UNL1        0.4192
     15 F           0.0000    0.0000    0.0000 F       1  UNL1       -0.1658
     16 F           0.0000    0.0000    0.0000 F       1  UNL1       -0.1658
     17 F           0.0000    0.0000    0.0000 F       1  UNL1       -0.1658
     18 C           0.0000    0.0000    0.0000 C.ar    1  UNL1        0.0198
     19 C           0.0000    0.0000    0.0000 C.2     1  UNL1        0.1517
     20 S           0.0000    0.0000    0.0000 S.2     1  UNL1       -0.0174
     21 N           0.0000    0.0000    0.0000 N.am    1  UNL1       -0.2646
     22 C           0.0000    0.0000    0.0000 C.ar    1  UNL1        0.0555
     23 C           0.0000    0.0000    0.0000 C.ar    1  UNL1        0.0150
     24 C           0.0000    0.0000    0.0000 C.ar    1  UNL1        0.0036
     25 C           0.0000    0.0000    0.0000 C.ar    1  UNL1        0.0297
     26 C           0.0000    0.0000    0.0000 C.ar    1  UNL1        0.1414
     27 F           0.0000    0.0000    0.0000 F       1  UNL1       -0.2041
     28 C           0.0000    0.0000    0.0000 C.ar    1  UNL1        0.0445
@<TRIPOS>BOND
     1     1     2    1
     2     2     3    1
     3     2     4    1
     4     4     5    2
     5     4     6   am
     6     6     7    1
     7     7     8   ar
     8     8     9   ar
     9     9    10   ar
    10    10    11    1
    11    11    12    3
    12    10    13   ar
    13    13    14    1
    14    14    15    1
    15    14    16    1
    16    14    17    1
    17    13    18   ar
    18     7    18   ar
    19     6    19    1
    20    19    20    2
    21    19    21    1
    22     2    21    1
    23    21    22    1
    24    22    23   ar
    25    23    24   ar
    26    24    25   ar
    27    25    26   ar
    28    26    27    1
    29    26    28   ar
    30    22    28   ar
