@<TRIPOS>MOLECULE
*****
 25 27 0 0 0
SMALL
GASTEIGER

@<TRIPOS>ATOM
      1 N           0.0000    0.0000    0.0000 N.1     1  UNL1       -0.1908
      2 C           0.0000    0.0000    0.0000 C.1     1  UNL1        0.1013
      3 C           0.0000    0.0000    0.0000 C.ar    1  UNL1        0.0792
      4 C           0.0000    0.0000    0.0000 C.ar    1  UNL1        0.0142
      5 C           0.0000    0.0000    0.0000 C.ar    1  UNL1        0.0376
      6 C           0.0000    0.0000    0.0000 C.ar    1  UNL1        0.1393
      7 O           0.0000    0.0000    0.0000 O.3     1  UNL1       -0.4791
      8 C           0.0000    0.0000    0.0000 C.3     1  UNL1        0.1660
      9 C           0.0000    0.0000    0.0000 C.3     1  UNL1        0.0453
     10 C           0.0000    0.0000    0.0000 C.3     1  UNL1        0.0254
     11 C           0.0000    0.0000    0.0000 C.3     1  UNL1        0.0959
     12 N           0.0000    0.0000    0.0000 N.am    1  UNL1       -0.2034
     13 C           0.0000    0.0000    0.0000 C.2     1  UNL1        0.2647
     14 O           0.0000    0.0000    0.0000 O.2     1  UNL1       -0.2684
     15 C           0.0000    0.0000    0.0000 C.ar    1  UNL1        0.0550
     16 C           0.0000    0.0000    0.0000 C.ar    1  UNL1        0.0046
     17 C           0.0000    0.0000    0.0000 C.ar    1  UNL1        0.0001
     18 C           0.0000    0.0000    0.0000 C.ar    1  UNL1        0.0000
     19 C           0.0000    0.0000    0.0000 C.ar    1  UNL1        0.0001
     20 C           0.0000    0.0000    0.0000 C.ar    1  UNL1        0.0046
     21 C           0.0000    0.0000    0.0000 C.3     1  UNL1        0.0254
     22 C           0.0000    0.0000    0.0000 C.3     1  UNL1        0.0453
     23 C           0.0000    0.0000    0.0000 C.ar    1  UNL1        0.0490
     24 C           0.0000    0.0000    0.0000 C.ar    1  UNL1        0.0703
     25 CL          0.0000    0.0000    0.0000 Cl      1  UNL1       -0.0814
@<TRIPOS>BOND
     1     1     2    3
     2     2     3    1
     3     3     4   ar
     4     4     5   ar
     5     5     6   ar
     6     6     7    1
     7     7     8    1
     8     8     9    1
     9     9    10    1
    10    10    11    1
    11    11    12    1
    12    12    13   am
    13    13    14    2
    14    13    15    1
    15    15    16   ar
    16    16    17   ar
    17    17    18   ar
    18    18    19   ar
    19    19    20   ar
    20    15    20   ar
    21    11    21    1
    22    21    22    1
    23     8    22    1
    24     6    23   ar
    25    23    24   ar
    26     3    24   ar
    27    24    25    1
