@<TRIPOS>MOLECULE
*****
 39 44 0 0 0
SMALL
GASTEIGER

@<TRIPOS>ATOM
      1 C           0.0000    0.0000    0.0000 C.2     1  UNL1        0.0048
      2 C           0.0000    0.0000    0.0000 C.2     1  UNL1        0.0579
      3 C           0.0000    0.0000    0.0000 C.2     1  UNL1        0.2492
      4 O           0.0000    0.0000    0.0000 O.2     1  UNL1       -0.2699
      5 N           0.0000    0.0000    0.0000 N.am    1  UNL1       -0.2741
      6 C           0.0000    0.0000    0.0000 C.3     1  UNL1        0.0958
      7 C           0.0000    0.0000    0.0000 C.3     1  UNL1        0.0459
      8 C           0.0000    0.0000    0.0000 C.3     1  UNL1        0.1110
      9 N           0.0000    0.0000    0.0000 N.ar    1  UNL1       -0.2835
     10 C           0.0000    0.0000    0.0000 C.ar    1  UNL1        0.2230
     11 N           0.0000    0.0000    0.0000 N.pl3   1  UNL1       -0.1790
     12 C           0.0000    0.0000    0.0000 C.ar    1  UNL1        0.0735
     13 C           0.0000    0.0000    0.0000 C.ar    1  UNL1        0.0166
     14 C           0.0000    0.0000    0.0000 C.ar    1  UNL1        0.0013
     15 C           0.0000    0.0000    0.0000 C.ar    1  UNL1        0.0001
     16 C           0.0000    0.0000    0.0000 C.ar    1  UNL1        0.0013
     17 C           0.0000    0.0000    0.0000 C.ar    1  UNL1        0.0166
     18 N           0.0000    0.0000    0.0000 N.ar    1  UNL1       -0.2089
     19 C           0.0000    0.0000    0.0000 C.ar    1  UNL1        0.1375
     20 C           0.0000    0.0000    0.0000 C.ar    1  UNL1        0.1241
     21 N           0.0000    0.0000    0.0000 N.ar    1  UNL1       -0.2089
     22 C           0.0000    0.0000    0.0000 C.ar    1  UNL1        0.2423
     23 N           0.0000    0.0000    0.0000 N.pl3   1  UNL1       -0.1776
     24 C           0.0000    0.0000    0.0000 C.ar    1  UNL1        0.0737
     25 C           0.0000    0.0000    0.0000 C.ar    1  UNL1        0.0179
     26 C           0.0000    0.0000    0.0000 C.ar    1  UNL1        0.0159
     27 C           0.0000    0.0000    0.0000 C.ar    1  UNL1        0.0480
     28 N           0.0000    0.0000    0.0000 N.pl3   1  UNL1       -0.3046
     29 C           0.0000    0.0000    0.0000 C.3     1  UNL1        0.1081
     30 C           0.0000    0.0000    0.0000 C.3     1  UNL1        0.0938
     31 N           0.0000    0.0000    0.0000 N.3     1  UNL1       -0.2686
     32 C           0.0000    0.0000    0.0000 C.3     1  UNL1        0.0897
     33 C           0.0000    0.0000    0.0000 C.3     1  UNL1        0.0938
     34 C           0.0000    0.0000    0.0000 C.3     1  UNL1        0.1081
     35 C           0.0000    0.0000    0.0000 C.ar    1  UNL1        0.0159
     36 C           0.0000    0.0000    0.0000 C.ar    1  UNL1        0.0179
     37 N           0.0000    0.0000    0.0000 N.ar    1  UNL1       -0.1931
     38 C           0.0000    0.0000    0.0000 C.ar    1  UNL1        0.1682
     39 C           0.0000    0.0000    0.0000 C.3     1  UNL1        0.1163
@<TRIPOS>BOND
     1     1     2    2
     2     2     3    1
     3     3     4    2
     4     3     5   am
     5     5     6    1
     6     6     7    1
     7     7     8    1
     8     8     9    1
     9     9    10   ar
    10    10    11    1
    11    11    12    1
    12    12    13   ar
    13    13    14   ar
    14    14    15   ar
    15    15    16   ar
    16    16    17   ar
    17    12    17   ar
    18    10    18   ar
    19    18    19   ar
    20    19    20   ar
    21    20    21   ar
    22    21    22   ar
    23    22    23    1
    24    23    24    1
    25    24    25   ar
    26    25    26   ar
    27    26    27   ar
    28    27    28    1
    29    28    29    1
    30    29    30    1
    31    30    31    1
    32    31    32    1
    33    31    33    1
    34    33    34    1
    35    28    34    1
    36    27    35   ar
    37    35    36   ar
    38    24    36   ar
    39    22    37   ar
    40    37    38   ar
    41    19    38   ar
    42     9    38   ar
    43     8    39    1
    44     5    39    1
