@<TRIPOS>MOLECULE
*****
 35 40 0 0 0
SMALL
GASTEIGER

@<TRIPOS>ATOM
      1 C           0.0000    0.0000    0.0000 C.3     1  UNL1        0.0897
      2 N           0.0000    0.0000    0.0000 N.3     1  UNL1       -0.2686
      3 C           0.0000    0.0000    0.0000 C.3     1  UNL1        0.0938
      4 C           0.0000    0.0000    0.0000 C.3     1  UNL1        0.1081
      5 N           0.0000    0.0000    0.0000 N.pl3   1  UNL1       -0.3046
      6 C           0.0000    0.0000    0.0000 C.ar    1  UNL1        0.0480
      7 C           0.0000    0.0000    0.0000 C.ar    1  UNL1        0.0159
      8 C           0.0000    0.0000    0.0000 C.ar    1  UNL1        0.0179
      9 C           0.0000    0.0000    0.0000 C.ar    1  UNL1        0.0737
     10 N           0.0000    0.0000    0.0000 N.pl3   1  UNL1       -0.1776
     11 C           0.0000    0.0000    0.0000 C.ar    1  UNL1        0.2423
     12 N           0.0000    0.0000    0.0000 N.ar    1  UNL1       -0.2089
     13 C           0.0000    0.0000    0.0000 C.ar    1  UNL1        0.1241
     14 C           0.0000    0.0000    0.0000 C.ar    1  UNL1        0.1375
     15 N           0.0000    0.0000    0.0000 N.ar    1  UNL1       -0.2089
     16 C           0.0000    0.0000    0.0000 C.ar    1  UNL1        0.2230
     17 N           0.0000    0.0000    0.0000 N.pl3   1  UNL1       -0.1790
     18 C           0.0000    0.0000    0.0000 C.ar    1  UNL1        0.0735
     19 C           0.0000    0.0000    0.0000 C.ar    1  UNL1        0.0166
     20 C           0.0000    0.0000    0.0000 C.ar    1  UNL1        0.0013
     21 C           0.0000    0.0000    0.0000 C.ar    1  UNL1        0.0001
     22 C           0.0000    0.0000    0.0000 C.ar    1  UNL1        0.0013
     23 C           0.0000    0.0000    0.0000 C.ar    1  UNL1        0.0166
     24 N           0.0000    0.0000    0.0000 N.ar    1  UNL1       -0.2853
     25 C           0.0000    0.0000    0.0000 C.3     1  UNL1        0.0895
     26 C           0.0000    0.0000    0.0000 C.3     1  UNL1        0.0227
     27 C           0.0000    0.0000    0.0000 C.3     1  UNL1        0.0020
     28 C           0.0000    0.0000    0.0000 C.3     1  UNL1        0.0020
     29 C           0.0000    0.0000    0.0000 C.3     1  UNL1        0.0227
     30 C           0.0000    0.0000    0.0000 C.ar    1  UNL1        0.1681
     31 N           0.0000    0.0000    0.0000 N.ar    1  UNL1       -0.1931
     32 C           0.0000    0.0000    0.0000 C.ar    1  UNL1        0.0179
     33 C           0.0000    0.0000    0.0000 C.ar    1  UNL1        0.0159
     34 C           0.0000    0.0000    0.0000 C.3     1  UNL1        0.1081
     35 C           0.0000    0.0000    0.0000 C.3     1  UNL1        0.0938
@<TRIPOS>BOND
     1     1     2    1
     2     2     3    1
     3     3     4    1
     4     4     5    1
     5     5     6    1
     6     6     7   ar
     7     7     8   ar
     8     8     9   ar
     9     9    10    1
    10    10    11    1
    11    11    12   ar
    12    12    13   ar
    13    13    14   ar
    14    14    15   ar
    15    15    16   ar
    16    16    17    1
    17    17    18    1
    18    18    19   ar
    19    19    20   ar
    20    20    21   ar
    21    21    22   ar
    22    22    23   ar
    23    18    23   ar
    24    16    24   ar
    25    24    25    1
    26    25    26    1
    27    26    27    1
    28    27    28    1
    29    28    29    1
    30    25    29    1
    31    24    30   ar
    32    14    30   ar
    33    30    31   ar
    34    11    31   ar
    35     9    32   ar
    36    32    33   ar
    37     6    33   ar
    38     5    34    1
    39    34    35    1
    40     2    35    1
