@<TRIPOS>MOLECULE
*****
 33 37 0 0 0
SMALL
GASTEIGER

@<TRIPOS>ATOM
      1 O           0.0000    0.0000    0.0000 O.3     1  UNL1       -0.2204
      2 C           0.0000    0.0000    0.0000 C.3     1  UNL1        0.1821
      3 C           0.0000    0.0000    0.0000 C.3     1  UNL1        0.0364
      4 C           0.0000    0.0000    0.0000 C.3     1  UNL1        0.0241
      5 C           0.0000    0.0000    0.0000 C.3     1  UNL1        0.0922
      6 N           0.0000    0.0000    0.0000 N.pl3   1  UNL1       -0.2931
      7 C           0.0000    0.0000    0.0000 C.ar    1  UNL1        0.1362
      8 N           0.0000    0.0000    0.0000 N.ar    1  UNL1       -0.1972
      9 C           0.0000    0.0000    0.0000 C.ar    1  UNL1        0.2420
     10 N           0.0000    0.0000    0.0000 N.pl3   1  UNL1       -0.1776
     11 C           0.0000    0.0000    0.0000 C.ar    1  UNL1        0.0737
     12 C           0.0000    0.0000    0.0000 C.ar    1  UNL1        0.0189
     13 C           0.0000    0.0000    0.0000 C.ar    1  UNL1        0.0310
     14 C           0.0000    0.0000    0.0000 C.ar    1  UNL1        0.1402
     15 F           0.0000    0.0000    0.0000 F       1  UNL1       -0.2042
     16 C           0.0000    0.0000    0.0000 C.ar    1  UNL1        0.0310
     17 C           0.0000    0.0000    0.0000 C.ar    1  UNL1        0.0189
     18 N           0.0000    0.0000    0.0000 N.ar    1  UNL1       -0.2105
     19 C           0.0000    0.0000    0.0000 C.ar    1  UNL1        0.1061
     20 C           0.0000    0.0000    0.0000 C.ar    1  UNL1        0.1196
     21 N           0.0000    0.0000    0.0000 N.ar    1  UNL1       -0.2258
     22 C           0.0000    0.0000    0.0000 C.ar    1  UNL1        0.1534
     23 N           0.0000    0.0000    0.0000 N.pl3   1  UNL1       -0.1755
     24 C           0.0000    0.0000    0.0000 C.ar    1  UNL1        0.1532
     25 C           0.0000    0.0000    0.0000 C.ar    1  UNL1        0.0362
     26 C           0.0000    0.0000    0.0000 C.ar    1  UNL1        0.0045
     27 C           0.0000    0.0000    0.0000 C.ar    1  UNL1        0.0208
     28 C           0.0000    0.0000    0.0000 C.ar    1  UNL1        0.1004
     29 N           0.0000    0.0000    0.0000 N.ar    1  UNL1       -0.2273
     30 C           0.0000    0.0000    0.0000 C.ar    1  UNL1        0.0405
     31 C           0.0000    0.0000    0.0000 C.ar    1  UNL1        0.0538
     32 C           0.0000    0.0000    0.0000 C.3     1  UNL1        0.0922
     33 C           0.0000    0.0000    0.0000 C.3     1  UNL1        0.0241
@<TRIPOS>BOND
     1     1     2    1
     2     2     3    1
     3     3     4    1
     4     4     5    1
     5     5     6    1
     6     6     7    1
     7     7     8   ar
     8     8     9   ar
     9     9    10    1
    10    10    11    1
    11    11    12   ar
    12    12    13   ar
    13    13    14   ar
    14    14    15    1
    15    14    16   ar
    16    16    17   ar
    17    11    17   ar
    18     9    18   ar
    19    18    19   ar
    20    19    20   ar
    21    20    21   ar
    22    21    22   ar
    23    22    23    1
    24    23    24    1
    25    24    25   ar
    26    25    26   ar
    27    26    27   ar
    28    27    28   ar
    29    28    29   ar
    30    24    29   ar
    31    22    30   ar
    32    30    31   ar
    33     7    31   ar
    34    19    31   ar
    35     6    32    1
    36    32    33    1
    37     3    33    1
