@<TRIPOS>MOLECULE
*****
 21 22 0 0 0
SMALL
GASTEIGER

@<TRIPOS>ATOM
      1 C           0.0000    0.0000    0.0000 C.3     1  UNL1        0.0053
      2 C           0.0000    0.0000    0.0000 C.3     1  UNL1        0.0554
      3 C           0.0000    0.0000    0.0000 C.3     1  UNL1        0.0053
      4 C           0.0000    0.0000    0.0000 C.3     1  UNL1        0.1023
      5 N           0.0000    0.0000    0.0000 N.am    1  UNL1       -0.1993
      6 C           0.0000    0.0000    0.0000 C.2     1  UNL1        0.3201
      7 O           0.0000    0.0000    0.0000 O.2     1  UNL1       -0.2633
      8 C           0.0000    0.0000    0.0000 C.3     1  UNL1        0.0554
      9 C           0.0000    0.0000    0.0000 C.3     1  UNL1        0.0053
     10 C           0.0000    0.0000    0.0000 C.3     1  UNL1        0.0053
     11 C           0.0000    0.0000    0.0000 C.3     1  UNL1        0.1686
     12 O           0.0000    0.0000    0.0000 O.3     1  UNL1       -0.4790
     13 C           0.0000    0.0000    0.0000 C.ar    1  UNL1        0.1393
     14 C           0.0000    0.0000    0.0000 C.ar    1  UNL1        0.0376
     15 C           0.0000    0.0000    0.0000 C.ar    1  UNL1        0.0142
     16 C           0.0000    0.0000    0.0000 C.ar    1  UNL1        0.0792
     17 C           0.0000    0.0000    0.0000 C.1     1  UNL1        0.1013
     18 N           0.0000    0.0000    0.0000 N.1     1  UNL1       -0.1908
     19 C           0.0000    0.0000    0.0000 C.ar    1  UNL1        0.0703
     20 CL          0.0000    0.0000    0.0000 Cl      1  UNL1       -0.0814
     21 C           0.0000    0.0000    0.0000 C.ar    1  UNL1        0.0490
@<TRIPOS>BOND
     1     1     2    1
     2     2     3    1
     3     2     4    1
     4     4     5    1
     5     5     6   am
     6     6     7    2
     7     4     8    1
     8     8     9    1
     9     8    10    1
    10     8    11    1
    11     2    11    1
    12    11    12    1
    13    12    13    1
    14    13    14   ar
    15    14    15   ar
    16    15    16   ar
    17    16    17    1
    18    17    18    3
    19    16    19   ar
    20    19    20    1
    21    19    21   ar
    22    13    21   ar
