@<TRIPOS>MOLECULE
*****
 41 46 0 0 0
SMALL
GASTEIGER

@<TRIPOS>ATOM
      1 C           0.0000    0.0000    0.0000 C.3     1  UNL1        0.0310
      2 C           0.0000    0.0000    0.0000 C.ar    1  UNL1       -0.0217
      3 C           0.0000    0.0000    0.0000 C.ar    1  UNL1       -0.0011
      4 C           0.0000    0.0000    0.0000 C.ar    1  UNL1        0.0366
      5 C           0.0000    0.0000    0.0000 C.ar    1  UNL1        0.1385
      6 O           0.0000    0.0000    0.0000 O.3     1  UNL1       -0.4755
      7 C           0.0000    0.0000    0.0000 C.3     1  UNL1        0.2058
      8 C           0.0000    0.0000    0.0000 C.3     1  UNL1        0.0526
      9 C           0.0000    0.0000    0.0000 C.3     1  UNL1        0.0386
     10 C           0.0000    0.0000    0.0000 C.ar    1  UNL1        0.0341
     11 S           0.0000    0.0000    0.0000 S.2     1  UNL1       -0.0557
     12 C           0.0000    0.0000    0.0000 C.ar    1  UNL1        0.1632
     13 N           0.0000    0.0000    0.0000 N.pl3   1  UNL1       -0.2837
     14 C           0.0000    0.0000    0.0000 C.3     1  UNL1        0.0976
     15 C           0.0000    0.0000    0.0000 C.3     1  UNL1        0.0476
     16 C           0.0000    0.0000    0.0000 C.ar    1  UNL1       -0.0227
     17 C           0.0000    0.0000    0.0000 C.ar    1  UNL1       -0.0045
     18 C           0.0000    0.0000    0.0000 C.ar    1  UNL1       -0.0002
     19 C           0.0000    0.0000    0.0000 C.ar    1  UNL1        0.0043
     20 C           0.0000    0.0000    0.0000 C.ar    1  UNL1        0.0528
     21 C           0.0000    0.0000    0.0000 C.2     1  UNL1        0.2704
     22 O           0.0000    0.0000    0.0000 O.2     1  UNL1       -0.2680
     23 N           0.0000    0.0000    0.0000 N.am    1  UNL1       -0.1505
     24 C           0.0000    0.0000    0.0000 C.ar    1  UNL1        0.1861
     25 N           0.0000    0.0000    0.0000 N.ar    1  UNL1       -0.2225
     26 C           0.0000    0.0000    0.0000 C.ar    1  UNL1        0.0893
     27 C           0.0000    0.0000    0.0000 C.ar    1  UNL1        0.0197
     28 C           0.0000    0.0000    0.0000 C.ar    1  UNL1        0.0016
     29 C           0.0000    0.0000    0.0000 C.ar    1  UNL1        0.0006
     30 C           0.0000    0.0000    0.0000 C.ar    1  UNL1        0.0081
     31 C           0.0000    0.0000    0.0000 C.ar    1  UNL1        0.0498
     32 S           0.0000    0.0000    0.0000 S.2     1  UNL1       -0.0497
     33 C           0.0000    0.0000    0.0000 C.ar    1  UNL1       -0.0018
     34 C           0.0000    0.0000    0.0000 C.3     1  UNL1        0.1192
     35 N           0.0000    0.0000    0.0000 N.ar    1  UNL1       -0.2177
     36 CA          0.0000    0.0000    0.0000 C.ar    1  UNL1        0.1646
     37 C           0.0000    0.0000    0.0000 C.2     1  UNL1        0.4053
     38 O           0.0000    0.0000    0.0000 O.co2   1  UNL1       -0.2388
     39 OXT         0.0000    0.0000    0.0000 O.co2   1  UNL1       -0.2388
     40 C           0.0000    0.0000    0.0000 C.ar    1  UNL1        0.0366
     41 C           0.0000    0.0000    0.0000 C.ar    1  UNL1       -0.0011
@<TRIPOS>BOND
     1     1     2    1
     2     2     3   ar
     3     3     4   ar
     4     4     5   ar
     5     5     6    1
     6     6     7    1
     7     7     8    1
     8     8     9    1
     9     9    10    1
    10    10    11   ar
    11    11    12   ar
    12    12    13    1
    13    13    14    1
    14    14    15    1
    15    15    16    1
    16    16    17   ar
    17    17    18   ar
    18    18    19   ar
    19    19    20   ar
    20    20    21    1
    21    21    22    2
    22    21    23   am
    23    23    24    1
    24    24    25   ar
    25    25    26   ar
    26    26    27   ar
    27    27    28   ar
    28    28    29   ar
    29    29    30   ar
    30    30    31   ar
    31    26    31   ar
    32    31    32   ar
    33    24    32   ar
    34    20    33   ar
    35    16    33   ar
    36    33    34    1
    37    13    34    1
    38    12    35   ar
    39    35    36   ar
    40    10    36   ar
    41    36    37    1
    42    37    38   ar
    43    37    39   ar
    44     5    40   ar
    45    40    41   ar
    46     2    41   ar
