@<TRIPOS>MOLECULE
*****
 41 44 0 0 0
SMALL
GASTEIGER

@<TRIPOS>ATOM
      1 C           0.0000    0.0000    0.0000 C.3     1  UNL1        0.0062
      2 C           0.0000    0.0000    0.0000 C.3     1  UNL1        0.0385
      3 C           0.0000    0.0000    0.0000 C.3     1  UNL1        0.0062
      4 C           0.0000    0.0000    0.0000 C.ar    1  UNL1        0.0411
      5 C           0.0000    0.0000    0.0000 C.ar    1  UNL1        0.0684
      6 C           0.0000    0.0000    0.0000 C.2     1  UNL1        0.2701
      7 O           0.0000    0.0000    0.0000 O.2     1  UNL1       -0.2680
      8 N           0.0000    0.0000    0.0000 N.am    1  UNL1       -0.1754
      9 C           0.0000    0.0000    0.0000 C.ar    1  UNL1        0.0737
     10 C           0.0000    0.0000    0.0000 C.ar    1  UNL1        0.0166
     11 C           0.0000    0.0000    0.0000 C.ar    1  UNL1        0.0013
     12 C           0.0000    0.0000    0.0000 C.ar    1  UNL1        0.0001
     13 C           0.0000    0.0000    0.0000 C.ar    1  UNL1        0.0013
     14 C           0.0000    0.0000    0.0000 C.ar    1  UNL1        0.0166
     15 C           0.0000    0.0000    0.0000 C.ar    1  UNL1        0.0213
     16 C           0.0000    0.0000    0.0000 C.ar    1  UNL1        0.0016
     17 C           0.0000    0.0000    0.0000 C.ar    1  UNL1        0.0000
     18 C           0.0000    0.0000    0.0000 C.ar    1  UNL1        0.0000
     19 C           0.0000    0.0000    0.0000 C.ar    1  UNL1        0.0000
     20 C           0.0000    0.0000    0.0000 C.ar    1  UNL1        0.0000
     21 C           0.0000    0.0000    0.0000 C.ar    1  UNL1        0.0000
     22 C           0.0000    0.0000    0.0000 C.ar    1  UNL1        0.0597
     23 C           0.0000    0.0000    0.0000 C.ar    1  UNL1        0.0159
     24 C           0.0000    0.0000    0.0000 C.ar    1  UNL1        0.0037
     25 C           0.0000    0.0000    0.0000 C.ar    1  UNL1        0.0297
     26 C           0.0000    0.0000    0.0000 C.ar    1  UNL1        0.1401
     27 F           0.0000    0.0000    0.0000 F       1  UNL1       -0.2042
     28 C           0.0000    0.0000    0.0000 C.ar    1  UNL1        0.0297
     29 C           0.0000    0.0000    0.0000 C.ar    1  UNL1        0.0037
     30 N           0.0000    0.0000    0.0000 N.ar    1  UNL1       -0.3304
     31 C           0.0000    0.0000    0.0000 C.3     1  UNL1        0.1083
     32 C           0.0000    0.0000    0.0000 C.3     1  UNL1        0.0574
     33 C           0.0000    0.0000    0.0000 C.3     1  UNL1        0.1565
     34 O           0.0000    0.0000    0.0000 O.3     1  UNL1       -0.2230
     35 C           0.0000    0.0000    0.0000 C.3     1  UNL1        0.0664
     36 C           0.0000    0.0000    0.0000 C.3     1  UNL1        0.1658
     37 O           0.0000    0.0000    0.0000 O.3     1  UNL1       -0.2225
     38 C           0.0000    0.0000    0.0000 C.3     1  UNL1        0.1469
     39 C           0.0000    0.0000    0.0000 C.2     1  UNL1        0.3674
     40 O           0.0000    0.0000    0.0000 O.co2   1  UNL1       -0.2456
     41 O           0.0000    0.0000    0.0000 O.co2   1  UNL1       -0.2456
@<TRIPOS>BOND
     1     1     2    1
     2     2     3    1
     3     2     4    1
     4     4     5   ar
     5     5     6    1
     6     6     7    2
     7     6     8   am
     8     8     9    1
     9     9    10   ar
    10    10    11   ar
    11    11    12   ar
    12    12    13   ar
    13    13    14   ar
    14     9    14   ar
    15     5    15   ar
    16    15    16    1
    17    16    17   ar
    18    17    18   ar
    19    18    19   ar
    20    19    20   ar
    21    20    21   ar
    22    16    21   ar
    23    15    22   ar
    24    22    23    1
    25    23    24   ar
    26    24    25   ar
    27    25    26   ar
    28    26    27    1
    29    26    28   ar
    30    28    29   ar
    31    23    29   ar
    32    22    30   ar
    33     4    30   ar
    34    30    31    1
    35    31    32    1
    36    32    33    1
    37    33    34    1
    38    33    35    1
    39    35    36    1
    40    36    37    1
    41    36    38    1
    42    38    39    1
    43    39    40   ar
    44    39    41   ar
