@<TRIPOS>MOLECULE
*****
 19 20 0 0 0
SMALL
GASTEIGER

@<TRIPOS>ATOM
      1 C           0.0000    0.0000    0.0000 C.3     1  UNL1        0.0050
      2 C           0.0000    0.0000    0.0000 C.3     1  UNL1        0.0533
      3 C           0.0000    0.0000    0.0000 C.3     1  UNL1        0.0050
      4 C           0.0000    0.0000    0.0000 C.3     1  UNL1        0.0983
      5 N           0.0000    0.0000    0.0000 N.3     1  UNL1       -0.1327
      6 C           0.0000    0.0000    0.0000 C.3     1  UNL1        0.0533
      7 C           0.0000    0.0000    0.0000 C.3     1  UNL1        0.0050
      8 C           0.0000    0.0000    0.0000 C.3     1  UNL1        0.0050
      9 C           0.0000    0.0000    0.0000 C.3     1  UNL1        0.1681
     10 O           0.0000    0.0000    0.0000 O.3     1  UNL1       -0.4791
     11 C           0.0000    0.0000    0.0000 C.ar    1  UNL1        0.1393
     12 C           0.0000    0.0000    0.0000 C.ar    1  UNL1        0.0376
     13 C           0.0000    0.0000    0.0000 C.ar    1  UNL1        0.0142
     14 C           0.0000    0.0000    0.0000 C.ar    1  UNL1        0.0792
     15 C           0.0000    0.0000    0.0000 C.1     1  UNL1        0.1013
     16 N           0.0000    0.0000    0.0000 N.1     1  UNL1       -0.1908
     17 C           0.0000    0.0000    0.0000 C.ar    1  UNL1        0.0703
     18 CL          0.0000    0.0000    0.0000 Cl      1  UNL1       -0.0814
     19 C           0.0000    0.0000    0.0000 C.ar    1  UNL1        0.0490
@<TRIPOS>BOND
     1     1     2    1
     2     2     3    1
     3     2     4    1
     4     4     5    1
     5     4     6    1
     6     6     7    1
     7     6     8    1
     8     6     9    1
     9     2     9    1
    10     9    10    1
    11    10    11    1
    12    11    12   ar
    13    12    13   ar
    14    13    14   ar
    15    14    15    1
    16    15    16    3
    17    14    17   ar
    18    17    18    1
    19    17    19   ar
    20    11    19   ar
