@<TRIPOS>MOLECULE
*****
 32 35 0 0 0
SMALL
GASTEIGER

@<TRIPOS>ATOM
      1 C           0.0000    0.0000    0.0000 C.3     1  UNL1        0.0307
      2 C           0.0000    0.0000    0.0000 C.2     1  UNL1       -0.0258
      3 C           0.0000    0.0000    0.0000 C.2     1  UNL1       -0.0043
      4 C           0.0000    0.0000    0.0000 C.2     1  UNL1       -0.0003
      5 C           0.0000    0.0000    0.0000 C.2     1  UNL1       -0.0000
      6 C           0.0000    0.0000    0.0000 C.ar    1  UNL1       -0.0001
      7 C           0.0000    0.0000    0.0000 C.ar    1  UNL1        0.0015
      8 C           0.0000    0.0000    0.0000 C.ar    1  UNL1        0.0192
      9 C           0.0000    0.0000    0.0000 C.ar    1  UNL1        0.0858
     10 N           0.0000    0.0000    0.0000 N.ar    1  UNL1       -0.2239
     11 C           0.0000    0.0000    0.0000 C.ar    1  UNL1        0.2001
     12 N           0.0000    0.0000    0.0000 N.ar    1  UNL1       -0.2072
     13 C           0.0000    0.0000    0.0000 C.ar    1  UNL1        0.1549
     14 N           0.0000    0.0000    0.0000 N.pl3   1  UNL1       -0.1940
     15 C           0.0000    0.0000    0.0000 C.ar    1  UNL1        0.0732
     16 C           0.0000    0.0000    0.0000 C.ar    1  UNL1        0.0197
     17 C           0.0000    0.0000    0.0000 C.ar    1  UNL1        0.0391
     18 C           0.0000    0.0000    0.0000 C.ar    1  UNL1        0.1496
     19 O           0.0000    0.0000    0.0000 O.3     1  UNL1       -0.4698
     20 C           0.0000    0.0000    0.0000 C.3     1  UNL1        0.2321
     21 C           0.0000    0.0000    0.0000 C.ar    1  UNL1        0.0234
     22 C           0.0000    0.0000    0.0000 C.ar    1  UNL1       -0.0005
     23 C           0.0000    0.0000    0.0000 C.ar    1  UNL1        0.0021
     24 C           0.0000    0.0000    0.0000 C.ar    1  UNL1        0.0296
     25 C           0.0000    0.0000    0.0000 C.ar    1  UNL1        0.1399
     26 F           0.0000    0.0000    0.0000 F       1  UNL1       -0.2042
     27 C           0.0000    0.0000    0.0000 C.ar    1  UNL1        0.0289
     28 C           0.0000    0.0000    0.0000 C.ar    1  UNL1        0.0928
     29 CL          0.0000    0.0000    0.0000 Cl      1  UNL1       -0.0790
     30 C           0.0000    0.0000    0.0000 C.ar    1  UNL1        0.0310
     31 C           0.0000    0.0000    0.0000 C.ar    1  UNL1        0.0511
     32 C           0.0000    0.0000    0.0000 C.ar    1  UNL1        0.0043
@<TRIPOS>BOND
     1     1     2    1
     2     2     3    2
     3     3     4    1
     4     4     5    2
     5     3     6    1
     6     6     7   ar
     7     7     8   ar
     8     8     9   ar
     9     9    10   ar
    10    10    11   ar
    11    11    12   ar
    12    12    13   ar
    13    13    14    1
    14    14    15    1
    15    15    16   ar
    16    16    17   ar
    17    17    18   ar
    18    18    19    1
    19    19    20    1
    20    20    21    1
    21    21    22   ar
    22    22    23   ar
    23    23    24   ar
    24    24    25   ar
    25    25    26    1
    26    25    27   ar
    27    21    27   ar
    28    18    28   ar
    29    28    29    1
    30    28    30   ar
    31    15    30   ar
    32    13    31   ar
    33     9    31   ar
    34    31    32   ar
    35     6    32   ar
