@<TRIPOS>MOLECULE
*****
 25 26 0 0 0
SMALL
GASTEIGER

@<TRIPOS>ATOM
      1 C           0.0000    0.0000    0.0000 C.3     1  UNL1        0.1388
      2 N           0.0000    0.0000    0.0000 N.pl3   1  UNL1       -0.1925
      3 C           0.0000    0.0000    0.0000 C.ar    1  UNL1        0.0682
      4 C           0.0000    0.0000    0.0000 C.ar    1  UNL1        0.0161
      5 C           0.0000    0.0000    0.0000 C.ar    1  UNL1        0.0011
      6 C           0.0000    0.0000    0.0000 C.ar    1  UNL1       -0.0025
      7 C           0.0000    0.0000    0.0000 C.ar    1  UNL1        0.0007
      8 C           0.0000    0.0000    0.0000 C.3     1  UNL1        0.1402
      9 N           0.0000    0.0000    0.0000 N.pl3   1  UNL1       -0.2154
     10 C           0.0000    0.0000    0.0000 C.ar    1  UNL1        0.1562
     11 N           0.0000    0.0000    0.0000 N.ar    1  UNL1       -0.1947
     12 C           0.0000    0.0000    0.0000 C.ar    1  UNL1        0.2578
     13 N           0.0000    0.0000    0.0000 N.pl3   1  UNL1       -0.0860
     14 N           0.0000    0.0000    0.0000 N.ar    1  UNL1       -0.2095
     15 C           0.0000    0.0000    0.0000 C.ar    1  UNL1        0.1086
     16 C           0.0000    0.0000    0.0000 C.ar    1  UNL1        0.1235
     17 C           0.0000    0.0000    0.0000 C.3     1  UNL1        0.4227
     18 F           0.0000    0.0000    0.0000 F       1  UNL1       -0.1657
     19 F           0.0000    0.0000    0.0000 F       1  UNL1       -0.1657
     20 F           0.0000    0.0000    0.0000 F       1  UNL1       -0.1657
     21 C           0.0000    0.0000    0.0000 C.ar    1  UNL1        0.0136
     22 S           0.0000    0.0000    0.0000 S.O2    1  UNL1        0.0588
     23 C           0.0000    0.0000    0.0000 C.3     1  UNL1        0.1999
     24 O           0.0000    0.0000    0.0000 O.2     1  UNL1       -0.1542
     25 O           0.0000    0.0000    0.0000 O.2     1  UNL1       -0.1542
@<TRIPOS>BOND
     1     1     2    1
     2     2     3    1
     3     3     4   ar
     4     4     5   ar
     5     5     6   ar
     6     6     7   ar
     7     7     8    1
     8     8     9    1
     9     9    10    1
    10    10    11   ar
    11    11    12   ar
    12    12    13    1
    13    12    14   ar
    14    14    15   ar
    15    15    16   ar
    16    10    16   ar
    17    16    17    1
    18    17    18    1
    19    17    19    1
    20    17    20    1
    21     7    21   ar
    22     3    21   ar
    23     2    22    1
    24    22    23    1
    25    22    24    2
    26    22    25    2
