@<TRIPOS>MOLECULE
*****
 26 28 0 0 0
SMALL
GASTEIGER

@<TRIPOS>ATOM
      1 C           0.0000    0.0000    0.0000 C.3     1  UNL1        0.2525
      2 O           0.0000    0.0000    0.0000 O.3     1  UNL1       -0.4716
      3 C           0.0000    0.0000    0.0000 C.ar    1  UNL1        0.1389
      4 C           0.0000    0.0000    0.0000 C.ar    1  UNL1        0.0369
      5 C           0.0000    0.0000    0.0000 C.ar    1  UNL1        0.0074
      6 C           0.0000    0.0000    0.0000 C.ar    1  UNL1        0.0177
      7 C           0.0000    0.0000    0.0000 C.ar    1  UNL1        0.0783
      8 N           0.0000    0.0000    0.0000 N.ar    1  UNL1       -0.2921
      9 C           0.0000    0.0000    0.0000 C.3     1  UNL1        0.1336
     10 C           0.0000    0.0000    0.0000 C.ar    1  UNL1        0.2624
     11 O           0.0000    0.0000    0.0000 O.2     1  UNL1       -0.2669
     12 C           0.0000    0.0000    0.0000 C.ar    1  UNL1        0.0753
     13 C           0.0000    0.0000    0.0000 C.ar    1  UNL1        0.1036
     14 N           0.0000    0.0000    0.0000 N.ar    1  UNL1       -0.2422
     15 C           0.0000    0.0000    0.0000 C.ar    1  UNL1        0.0989
     16 C           0.0000    0.0000    0.0000 C.ar    1  UNL1        0.0209
     17 C           0.0000    0.0000    0.0000 C.ar    1  UNL1        0.0091
     18 C           0.0000    0.0000    0.0000 C.ar    1  UNL1        0.0369
     19 C           0.0000    0.0000    0.0000 C.ar    1  UNL1        0.1389
     20 O           0.0000    0.0000    0.0000 O.3     1  UNL1       -0.4716
     21 C           0.0000    0.0000    0.0000 C.3     1  UNL1        0.2525
     22 C           0.0000    0.0000    0.0000 C.ar    1  UNL1        0.0617
     23 C           0.0000    0.0000    0.0000 C.3     1  UNL1        0.1054
     24 N           0.0000    0.0000    0.0000 N.3     1  UNL1       -0.2664
     25 C           0.0000    0.0000    0.0000 C.3     1  UNL1        0.0899
     26 C           0.0000    0.0000    0.0000 C.3     1  UNL1        0.0899
@<TRIPOS>BOND
     1     1     2    1
     2     2     3    1
     3     3     4   ar
     4     4     5   ar
     5     5     6    1
     6     6     7   ar
     7     7     8   ar
     8     8     9    1
     9     8    10   ar
    10    10    11    2
    11    10    12   ar
    12    12    13   ar
    13    13    14   ar
    14    14    15   ar
    15    15    16   ar
    16    16    17   ar
    17     6    17   ar
    18    12    17   ar
    19     5    18   ar
    20    18    19   ar
    21    19    20    1
    22    20    21    1
    23    19    22   ar
    24     3    22   ar
    25    22    23    1
    26    23    24    1
    27    24    25    1
    28    24    26    1
