@<TRIPOS>MOLECULE
*****
 19 21 0 0 0
SMALL
GASTEIGER

@<TRIPOS>ATOM
      1 C           0.0000    0.0000    0.0000 C.3     1  UNL1        0.0310
      2 C           0.0000    0.0000    0.0000 C.ar    1  UNL1       -0.0218
      3 C           0.0000    0.0000    0.0000 C.ar    1  UNL1       -0.0027
      4 C           0.0000    0.0000    0.0000 C.ar    1  UNL1        0.0188
      5 C           0.0000    0.0000    0.0000 C.ar    1  UNL1        0.0824
      6 N           0.0000    0.0000    0.0000 N.ar    1  UNL1       -0.2335
      7 N           0.0000    0.0000    0.0000 N.ar    1  UNL1       -0.1606
      8 C           0.0000    0.0000    0.0000 C.ar    1  UNL1        0.1601
      9 C           0.0000    0.0000    0.0000 C.2     1  UNL1        0.3055
     10 O           0.0000    0.0000    0.0000 O.2     1  UNL1       -0.2648
     11 N           0.0000    0.0000    0.0000 N.am    1  UNL1       -0.0743
     12 N           0.0000    0.0000    0.0000 N.2     1  UNL1       -0.1601
     13 C           0.0000    0.0000    0.0000 C.2     1  UNL1        0.0814
     14 C           0.0000    0.0000    0.0000 C.3     1  UNL1        0.0539
     15 C           0.0000    0.0000    0.0000 C.ar    1  UNL1        0.0527
     16 C           0.0000    0.0000    0.0000 C.ar    1  UNL1        0.0636
     17 C           0.0000    0.0000    0.0000 C.3     1  UNL1        0.0522
     18 C           0.0000    0.0000    0.0000 C.ar    1  UNL1        0.0188
     19 C           0.0000    0.0000    0.0000 C.ar    1  UNL1       -0.0027
@<TRIPOS>BOND
     1     1     2    1
     2     2     3   ar
     3     3     4   ar
     4     4     5   ar
     5     5     6    1
     6     6     7   ar
     7     7     8   ar
     8     8     9    1
     9     9    10    2
    10     9    11    1
    11    11    12    1
    12    12    13    2
    13    13    14    1
    14    13    15    1
    15     8    15   ar
    16    15    16   ar
    17     6    16   ar
    18    16    17    1
    19     5    18   ar
    20    18    19   ar
    21     2    19   ar
