@<TRIPOS>MOLECULE
*****
 18 20 0 0 0
SMALL
GASTEIGER

@<TRIPOS>ATOM
      1 C           0.0000    0.0000    0.0000 C.3     1  UNL1        0.0252
      2 C           0.0000    0.0000    0.0000 C.3     1  UNL1        0.1112
      3 C           0.0000    0.0000    0.0000 C.ar    1  UNL1        0.1531
      4 N           0.0000    0.0000    0.0000 N.ar    1  UNL1       -0.2277
      5 C           0.0000    0.0000    0.0000 C.ar    1  UNL1        0.1047
      6 C           0.0000    0.0000    0.0000 C.ar    1  UNL1        0.0758
      7 C           0.0000    0.0000    0.0000 C.2     1  UNL1        0.2857
      8 N           0.0000    0.0000    0.0000 N.am    1  UNL1       -0.0837
      9 O           0.0000    0.0000    0.0000 O.2     1  UNL1       -0.2666
     10 C           0.0000    0.0000    0.0000 C.ar    1  UNL1        0.0062
     11 C           0.0000    0.0000    0.0000 C.ar    1  UNL1        0.0018
     12 C           0.0000    0.0000    0.0000 C.ar    1  UNL1        0.0207
     13 C           0.0000    0.0000    0.0000 C.ar    1  UNL1        0.1004
     14 N           0.0000    0.0000    0.0000 N.ar    1  UNL1       -0.2279
     15 C           0.0000    0.0000    0.0000 C.3     1  UNL1        0.0248
     16 C           0.0000    0.0000    0.0000 C.3     1  UNL1        0.0206
     17 C           0.0000    0.0000    0.0000 C.3     1  UNL1        0.0891
     18 N           0.0000    0.0000    0.0000 N.3     1  UNL1       -0.2136
@<TRIPOS>BOND
     1     1     2    1
     2     2     3    1
     3     3     4   ar
     4     4     5   ar
     5     5     6   ar
     6     6     7    1
     7     7     8   am
     8     7     9    2
     9     6    10   ar
    10    10    11   ar
    11    11    12   ar
    12    12    13   ar
    13     5    13   ar
    14    13    14   ar
    15     3    14   ar
    16     2    15    1
    17    15    16    1
    18    16    17    1
    19    17    18    1
    20     2    18    1
