@<TRIPOS>MOLECULE
*****
 21 23 0 0 0
SMALL
GASTEIGER

@<TRIPOS>ATOM
      1 C           0.0000    0.0000    0.0000 C.3     1  UNL1        0.2525
      2 O           0.0000    0.0000    0.0000 O.3     1  UNL1       -0.4714
      3 C           0.0000    0.0000    0.0000 C.ar    1  UNL1        0.1402
      4 C           0.0000    0.0000    0.0000 C.ar    1  UNL1        0.0371
      5 C           0.0000    0.0000    0.0000 C.ar    1  UNL1        0.0075
      6 C           0.0000    0.0000    0.0000 C.ar    1  UNL1        0.0513
      7 C           0.0000    0.0000    0.0000 C.ar    1  UNL1        0.1549
      8 N           0.0000    0.0000    0.0000 N.pl3   1  UNL1       -0.1940
      9 C           0.0000    0.0000    0.0000 C.ar    1  UNL1        0.0731
     10 C           0.0000    0.0000    0.0000 C.ar    1  UNL1        0.0189
     11 C           0.0000    0.0000    0.0000 C.ar    1  UNL1        0.0318
     12 C           0.0000    0.0000    0.0000 C.ar    1  UNL1        0.1507
     13 F           0.0000    0.0000    0.0000 F       1  UNL1       -0.2033
     14 C           0.0000    0.0000    0.0000 C.ar    1  UNL1        0.0863
     15 CL          0.0000    0.0000    0.0000 Cl      1  UNL1       -0.0799
     16 C           0.0000    0.0000    0.0000 C.ar    1  UNL1        0.0302
     17 N           0.0000    0.0000    0.0000 N.ar    1  UNL1       -0.2072
     18 C           0.0000    0.0000    0.0000 C.ar    1  UNL1        0.2001
     19 N           0.0000    0.0000    0.0000 N.ar    1  UNL1       -0.2238
     20 C           0.0000    0.0000    0.0000 C.ar    1  UNL1        0.0888
     21 C           0.0000    0.0000    0.0000 C.ar    1  UNL1        0.0561
@<TRIPOS>BOND
     1     1     2    1
     2     2     3    1
     3     3     4   ar
     4     4     5   ar
     5     5     6   ar
     6     6     7   ar
     7     7     8    1
     8     8     9    1
     9     9    10   ar
    10    10    11   ar
    11    11    12   ar
    12    12    13    1
    13    12    14   ar
    14    14    15    1
    15    14    16   ar
    16     9    16   ar
    17     7    17   ar
    18    17    18   ar
    19    18    19   ar
    20    19    20   ar
    21     6    20   ar
    22    20    21   ar
    23     3    21   ar
