@<TRIPOS>MOLECULE
*****
 26 28 0 0 0
SMALL
GASTEIGER

@<TRIPOS>ATOM
      1 C           0.0000    0.0000    0.0000 C.3     1  UNL1        0.0002
      2 C           0.0000    0.0000    0.0000 C.3     1  UNL1        0.0051
      3 C           0.0000    0.0000    0.0000 C.3     1  UNL1        0.0654
      4 C           0.0000    0.0000    0.0000 C.3     1  UNL1        0.1420
      5 C           0.0000    0.0000    0.0000 C.3     1  UNL1        0.2286
      6 O           0.0000    0.0000    0.0000 O.3     1  UNL1       -0.4583
      7 C           0.0000    0.0000    0.0000 C.ar    1  UNL1        0.2249
      8 N           0.0000    0.0000    0.0000 N.ar    1  UNL1       -0.2101
      9 C           0.0000    0.0000    0.0000 C.ar    1  UNL1        0.1021
     10 C           0.0000    0.0000    0.0000 C.ar    1  UNL1        0.0209
     11 C           0.0000    0.0000    0.0000 C.ar    1  UNL1        0.0064
     12 C           0.0000    0.0000    0.0000 C.ar    1  UNL1        0.0079
     13 C           0.0000    0.0000    0.0000 C.ar    1  UNL1        0.0905
     14 C           0.0000    0.0000    0.0000 C.2     1  UNL1        0.2871
     15 N           0.0000    0.0000    0.0000 N.am    1  UNL1       -0.0836
     16 O           0.0000    0.0000    0.0000 O.2     1  UNL1       -0.2666
     17 C           0.0000    0.0000    0.0000 C.ar    1  UNL1        0.1433
     18 O           0.0000    0.0000    0.0000 O.3     1  UNL1       -0.4713
     19 C           0.0000    0.0000    0.0000 C.3     1  UNL1        0.2525
     20 C           0.0000    0.0000    0.0000 C.ar    1  UNL1        0.0417
     21 C           0.0000    0.0000    0.0000 C.ar    1  UNL1        0.0562
     22 N           0.0000    0.0000    0.0000 N.am    1  UNL1       -0.2010
     23 C           0.0000    0.0000    0.0000 C.2     1  UNL1        0.2742
     24 O           0.0000    0.0000    0.0000 O.2     1  UNL1       -0.2704
     25 C           0.0000    0.0000    0.0000 C.3     1  UNL1        0.2396
     26 F           0.0000    0.0000    0.0000 F       1  UNL1       -0.2273
@<TRIPOS>BOND
     1     1     2    1
     2     2     3    1
     3     3     4    1
     4     4     5    1
     5     5     6    1
     6     6     7    1
     7     7     8   ar
     8     8     9   ar
     9     9    10   ar
    10    10    11   ar
    11    11    12   ar
    12    12    13   ar
    13    13    14    1
    14    14    15   am
    15    14    16    2
    16    13    17   ar
    17    17    18    1
    18    18    19    1
    19    17    20   ar
    20    20    21   ar
    21     7    21   ar
    22    11    21   ar
    23     4    22    1
    24    22    23   am
    25    23    24    2
    26    23    25    1
    27     3    25    1
    28    25    26    1
