@<TRIPOS>MOLECULE
*****
 39 43 0 0 0
SMALL
GASTEIGER

@<TRIPOS>ATOM
      1 C           0.0000    0.0000    0.0000 C.3     1  UNL1        0.0317
      2 C           0.0000    0.0000    0.0000 C.ar    1  UNL1       -0.0142
      3 C           0.0000    0.0000    0.0000 C.ar    1  UNL1       -0.0035
      4 C           0.0000    0.0000    0.0000 C.ar    1  UNL1        0.0043
      5 C           0.0000    0.0000    0.0000 C.ar    1  UNL1        0.0560
      6 C           0.0000    0.0000    0.0000 C.2     1  UNL1        0.2690
      7 O           0.0000    0.0000    0.0000 O.2     1  UNL1       -0.2680
      8 N           0.0000    0.0000    0.0000 N.am    1  UNL1       -0.1755
      9 C           0.0000    0.0000    0.0000 C.ar    1  UNL1        0.0736
     10 C           0.0000    0.0000    0.0000 C.ar    1  UNL1        0.0163
     11 C           0.0000    0.0000    0.0000 C.ar    1  UNL1       -0.0016
     12 C           0.0000    0.0000    0.0000 C.ar    1  UNL1       -0.0022
     13 C           0.0000    0.0000    0.0000 C.3     1  UNL1        0.0992
     14 N           0.0000    0.0000    0.0000 N.3     1  UNL1       -0.2665
     15 C           0.0000    0.0000    0.0000 C.3     1  UNL1        0.0899
     16 C           0.0000    0.0000    0.0000 C.3     1  UNL1        0.0897
     17 N           0.0000    0.0000    0.0000 N.3     1  UNL1       -0.2691
     18 C           0.0000    0.0000    0.0000 C.3     1  UNL1        0.0897
     19 C           0.0000    0.0000    0.0000 C.3     1  UNL1        0.0897
     20 C           0.0000    0.0000    0.0000 C.3     1  UNL1        0.0899
     21 C           0.0000    0.0000    0.0000 C.ar    1  UNL1        0.0701
     22 C           0.0000    0.0000    0.0000 C.3     1  UNL1        0.4184
     23 F           0.0000    0.0000    0.0000 F       1  UNL1       -0.1659
     24 F           0.0000    0.0000    0.0000 F       1  UNL1       -0.1659
     25 F           0.0000    0.0000    0.0000 F       1  UNL1       -0.1659
     26 C           0.0000    0.0000    0.0000 C.ar    1  UNL1        0.0202
     27 C           0.0000    0.0000    0.0000 C.ar    1  UNL1        0.0125
     28 C           0.0000    0.0000    0.0000 C.ar    1  UNL1        0.0381
     29 C           0.0000    0.0000    0.0000 C.1     1  UNL1       -0.0600
     30 C           0.0000    0.0000    0.0000 C.1     1  UNL1       -0.0582
     31 C           0.0000    0.0000    0.0000 C.ar    1  UNL1        0.0613
     32 C           0.0000    0.0000    0.0000 C.ar    1  UNL1        0.1088
     33 N           0.0000    0.0000    0.0000 N.ar    1  UNL1       -0.2229
     34 C           0.0000    0.0000    0.0000 C.ar    1  UNL1        0.1853
     35 N           0.0000    0.0000    0.0000 N.ar    1  UNL1       -0.1284
     36 N           0.0000    0.0000    0.0000 N.ar    1  UNL1       -0.1448
     37 C           0.0000    0.0000    0.0000 C.ar    1  UNL1        0.1253
     38 C           0.0000    0.0000    0.0000 C.ar    1  UNL1        0.0591
     39 C           0.0000    0.0000    0.0000 C.ar    1  UNL1        0.0145
@<TRIPOS>BOND
     1     1     2    1
     2     2     3   ar
     3     3     4   ar
     4     4     5   ar
     5     5     6    1
     6     6     7    2
     7     6     8   am
     8     8     9    1
     9     9    10   ar
    10    10    11   ar
    11    11    12   ar
    12    12    13    1
    13    13    14    1
    14    14    15    1
    15    15    16    1
    16    16    17    1
    17    17    18    1
    18    17    19    1
    19    19    20    1
    20    14    20    1
    21    12    21   ar
    22    21    22    1
    23    22    23    1
    24    22    24    1
    25    22    25    1
    26    21    26   ar
    27     9    26   ar
    28     5    27   ar
    29    27    28   ar
    30     2    28   ar
    31    28    29    1
    32    29    30    3
    33    30    31    1
    34    31    32   ar
    35    32    33   ar
    36    33    34   ar
    37    34    35   ar
    38    35    36   ar
    39    36    37   ar
    40    37    38   ar
    41    34    38   ar
    42    38    39   ar
    43    31    39   ar
