@<TRIPOS>MOLECULE
*****
 21 23 0 0 0
SMALL
GASTEIGER

@<TRIPOS>ATOM
      1 O           0.0000    0.0000    0.0000 O.2     1  UNL1       -0.2831
      2 C           0.0000    0.0000    0.0000 C.2     1  UNL1        0.2364
      3 C           0.0000    0.0000    0.0000 C.ar    1  UNL1        0.0693
      4 C           0.0000    0.0000    0.0000 C.ar    1  UNL1        0.0017
      5 C           0.0000    0.0000    0.0000 C.ar    1  UNL1       -0.0159
      6 C           0.0000    0.0000    0.0000 C.3     1  UNL1        0.0739
      7 C           0.0000    0.0000    0.0000 C.ar    1  UNL1        0.0851
      8 N           0.0000    0.0000    0.0000 N.ar    1  UNL1       -0.1490
      9 N           0.0000    0.0000    0.0000 N.ar    1  UNL1       -0.1058
     10 C           0.0000    0.0000    0.0000 C.ar    1  UNL1        0.2967
     11 O           0.0000    0.0000    0.0000 O.2     1  UNL1       -0.2636
     12 C           0.0000    0.0000    0.0000 C.ar    1  UNL1        0.0605
     13 C           0.0000    0.0000    0.0000 C.ar    1  UNL1        0.0049
     14 C           0.0000    0.0000    0.0000 C.ar    1  UNL1        0.0002
     15 C           0.0000    0.0000    0.0000 C.ar    1  UNL1        0.0000
     16 C           0.0000    0.0000    0.0000 C.ar    1  UNL1        0.0014
     17 C           0.0000    0.0000    0.0000 C.ar    1  UNL1        0.0203
     18 C           0.0000    0.0000    0.0000 C.ar    1  UNL1       -0.0016
     19 C           0.0000    0.0000    0.0000 C.ar    1  UNL1        0.0294
     20 C           0.0000    0.0000    0.0000 C.ar    1  UNL1        0.1432
     21 F           0.0000    0.0000    0.0000 F       1  UNL1       -0.2041
@<TRIPOS>BOND
     1     1     2    2
     2     2     3    1
     3     3     4   ar
     4     4     5   ar
     5     5     6    1
     6     6     7    1
     7     7     8   ar
     8     8     9   ar
     9     9    10   ar
    10    10    11    2
    11    10    12   ar
    12    12    13   ar
    13    13    14   ar
    14    14    15   ar
    15    15    16   ar
    16    16    17   ar
    17     7    17   ar
    18    12    17   ar
    19     5    18   ar
    20    18    19   ar
    21    19    20   ar
    22     3    20   ar
    23    20    21    1
