@<TRIPOS>MOLECULE
*****
 29 32 0 0 0
SMALL
GASTEIGER

@<TRIPOS>ATOM
      1 C           0.0000    0.0000    0.0000 C.3     1  UNL1        0.0076
      2 C           0.0000    0.0000    0.0000 C.3     1  UNL1        0.0539
      3 C           0.0000    0.0000    0.0000 C.3     1  UNL1        0.0076
      4 C           0.0000    0.0000    0.0000 C.3     1  UNL1        0.0076
      5 C           0.0000    0.0000    0.0000 C.ar    1  UNL1        0.1550
      6 C           0.0000    0.0000    0.0000 C.ar    1  UNL1        0.0751
      7 C           0.0000    0.0000    0.0000 C.ar    1  UNL1        0.1972
      8 N           0.0000    0.0000    0.0000 N.am    1  UNL1       -0.1384
      9 C           0.0000    0.0000    0.0000 C.2     1  UNL1        0.3492
     10 O           0.0000    0.0000    0.0000 O.2     1  UNL1       -0.2484
     11 N           0.0000    0.0000    0.0000 N.am    1  UNL1       -0.1606
     12 C           0.0000    0.0000    0.0000 C.ar    1  UNL1        0.0750
     13 C           0.0000    0.0000    0.0000 C.ar    1  UNL1        0.0167
     14 C           0.0000    0.0000    0.0000 C.ar    1  UNL1        0.0014
     15 C           0.0000    0.0000    0.0000 C.ar    1  UNL1        0.0018
     16 C           0.0000    0.0000    0.0000 C.ar    1  UNL1        0.0250
     17 C           0.0000    0.0000    0.0000 C.ar    1  UNL1        0.1007
     18 N           0.0000    0.0000    0.0000 N.ar    1  UNL1       -0.2249
     19 C           0.0000    0.0000    0.0000 C.ar    1  UNL1        0.1669
     20 N           0.0000    0.0000    0.0000 N.ar    1  UNL1       -0.2048
     21 C           0.0000    0.0000    0.0000 C.ar    1  UNL1        0.2015
     22 N           0.0000    0.0000    0.0000 N.ar    1  UNL1       -0.2056
     23 C           0.0000    0.0000    0.0000 C.ar    1  UNL1        0.1743
     24 N           0.0000    0.0000    0.0000 N.pl3   1  UNL1       -0.1070
     25 C           0.0000    0.0000    0.0000 C.ar    1  UNL1        0.0721
     26 C           0.0000    0.0000    0.0000 C.ar    1  UNL1        0.0014
     27 C           0.0000    0.0000    0.0000 C.ar    1  UNL1        0.0167
     28 N           0.0000    0.0000    0.0000 N.ar    1  UNL1       -0.0603
     29 O           0.0000    0.0000    0.0000 O.2     1  UNL1       -0.3565
@<TRIPOS>BOND
     1     1     2    1
     2     2     3    1
     3     2     4    1
     4     2     5    1
     5     5     6   ar
     6     6     7   ar
     7     7     8    1
     8     8     9   am
     9     9    10    2
    10     9    11   am
    11    11    12    1
    12    12    13   ar
    13    13    14   ar
    14    14    15   ar
    15    15    16    1
    16    16    17   ar
    17    17    18   ar
    18    18    19   ar
    19    19    20   ar
    20    20    21   ar
    21    21    22   ar
    22    22    23   ar
    23    23    24    1
    24    23    25   ar
    25    16    25   ar
    26    19    25   ar
    27    15    26   ar
    28    26    27   ar
    29    12    27   ar
    30     7    28   ar
    31    28    29   ar
    32     5    29   ar
