@<TRIPOS>MOLECULE
*****
 24 27 0 0 0
SMALL
GASTEIGER

@<TRIPOS>ATOM
      1 C           0.0000    0.0000    0.0000 C.3     1  UNL1        0.0050
      2 C           0.0000    0.0000    0.0000 C.3     1  UNL1        0.0264
      3 C           0.0000    0.0000    0.0000 C.ar    1  UNL1       -0.0221
      4 C           0.0000    0.0000    0.0000 C.ar    1  UNL1       -0.0046
      5 C           0.0000    0.0000    0.0000 C.ar    1  UNL1       -0.0041
      6 C           0.0000    0.0000    0.0000 C.ar    1  UNL1       -0.0145
      7 C           0.0000    0.0000    0.0000 C.ar    1  UNL1        0.0351
      8 C           0.0000    0.0000    0.0000 C.ar    1  UNL1       -0.0014
      9 C           0.0000    0.0000    0.0000 C.2     1  UNL1        0.1964
     10 O           0.0000    0.0000    0.0000 O.2     1  UNL1       -0.2865
     11 C           0.0000    0.0000    0.0000 C.ar    1  UNL1        0.0542
     12 C           0.0000    0.0000    0.0000 C.ar    1  UNL1        0.0651
     13 N           0.0000    0.0000    0.0000 N.ar    1  UNL1       -0.2493
     14 C           0.0000    0.0000    0.0000 C.ar    1  UNL1        0.0817
     15 C           0.0000    0.0000    0.0000 C.ar    1  UNL1        0.0294
     16 C           0.0000    0.0000    0.0000 C.ar    1  UNL1        0.0699
     17 C           0.0000    0.0000    0.0000 C.1     1  UNL1        0.1005
     18 N           0.0000    0.0000    0.0000 N.1     1  UNL1       -0.1908
     19 C           0.0000    0.0000    0.0000 C.ar    1  UNL1        0.0104
     20 C           0.0000    0.0000    0.0000 C.ar    1  UNL1        0.0023
     21 C           0.0000    0.0000    0.0000 C.ar    1  UNL1        0.0219
     22 C           0.0000    0.0000    0.0000 C.3     1  UNL1        0.0544
     23 C           0.0000    0.0000    0.0000 C.3     1  UNL1        0.0103
     24 C           0.0000    0.0000    0.0000 C.3     1  UNL1        0.0103
@<TRIPOS>BOND
     1     1     2    1
     2     2     3    1
     3     3     4   ar
     4     4     5   ar
     5     5     6   ar
     6     6     7   ar
     7     7     8   ar
     8     3     8   ar
     9     7     9    1
    10     9    10    2
    11     9    11    1
    12    11    12   ar
    13    12    13   ar
    14    13    14   ar
    15    14    15   ar
    16    15    16   ar
    17    16    17    1
    18    17    18    3
    19    16    19   ar
    20    19    20   ar
    21    20    21   ar
    22    11    21   ar
    23    14    21   ar
    24    12    22    1
    25     6    22    1
    26    22    23    1
    27    22    24    1
