@<TRIPOS>MOLECULE
*****
 31 34 0 0 0
SMALL
GASTEIGER

@<TRIPOS>ATOM
      1 C           0.0000    0.0000    0.0000 C.3     1  UNL1        0.0203
      2 C           0.0000    0.0000    0.0000 C.3     1  UNL1        0.0889
      3 N           0.0000    0.0000    0.0000 N.3     1  UNL1       -0.2141
      4 C           0.0000    0.0000    0.0000 C.3     1  UNL1        0.1359
      5 C           0.0000    0.0000    0.0000 C.3     1  UNL1        0.2241
      6 O           0.0000    0.0000    0.0000 O.3     1  UNL1       -0.4739
      7 C           0.0000    0.0000    0.0000 C.ar    1  UNL1        0.1386
      8 C           0.0000    0.0000    0.0000 C.ar    1  UNL1        0.0370
      9 C           0.0000    0.0000    0.0000 C.ar    1  UNL1        0.0063
     10 C           0.0000    0.0000    0.0000 C.ar    1  UNL1        0.0392
     11 C           0.0000    0.0000    0.0000 C.2     1  UNL1        0.1960
     12 O           0.0000    0.0000    0.0000 O.2     1  UNL1       -0.2866
     13 C           0.0000    0.0000    0.0000 C.ar    1  UNL1        0.0454
     14 C           0.0000    0.0000    0.0000 C.ar    1  UNL1        0.0325
     15 C           0.0000    0.0000    0.0000 C.ar    1  UNL1        0.0063
     16 C           0.0000    0.0000    0.0000 C.ar    1  UNL1        0.0038
     17 C           0.0000    0.0000    0.0000 C.ar    1  UNL1        0.0420
     18 C           0.0000    0.0000    0.0000 C.ar    1  UNL1        0.1957
     19 O           0.0000    0.0000    0.0000 O.3     1  UNL1       -0.2866
     20 C           0.0000    0.0000    0.0000 C.ar    1  UNL1        0.0420
     21 C           0.0000    0.0000    0.0000 C.ar    1  UNL1        0.0038
     22 S           0.0000    0.0000    0.0000 S.2     1  UNL1       -0.0867
     23 C           0.0000    0.0000    0.0000 C.ar    1  UNL1        0.0327
     24 C           0.0000    0.0000    0.0000 C.ar    1  UNL1        0.0485
     25 C           0.0000    0.0000    0.0000 C.ar    1  UNL1        0.1962
     26 O           0.0000    0.0000    0.0000 O.3     1  UNL1       -0.2866
     27 C           0.0000    0.0000    0.0000 C.ar    1  UNL1        0.0421
     28 C           0.0000    0.0000    0.0000 C.ar    1  UNL1        0.0039
     29 C           0.0000    0.0000    0.0000 C.ar    1  UNL1        0.0098
     30 C           0.0000    0.0000    0.0000 C.ar    1  UNL1        0.0063
     31 C           0.0000    0.0000    0.0000 C.ar    1  UNL1        0.0370
@<TRIPOS>BOND
     1     1     2    1
     2     2     3    1
     3     3     4    1
     4     4     5    1
     5     5     6    1
     6     6     7    1
     7     7     8   ar
     8     8     9   ar
     9     9    10   ar
    10    10    11    1
    11    11    12    2
    12    11    13    1
    13    13    14   ar
    14    14    15    1
    15    15    16   ar
    16    16    17   ar
    17    17    18   ar
    18    18    19    1
    19    18    20   ar
    20    20    21   ar
    21    15    21   ar
    22    14    22   ar
    23    22    23   ar
    24    23    24   ar
    25    24    25   ar
    26    25    26    1
    27    25    27   ar
    28    27    28   ar
    29    28    29   ar
    30    13    29   ar
    31    23    29   ar
    32    10    30   ar
    33    30    31   ar
    34     7    31   ar
