@<TRIPOS>MOLECULE
*****
 33 36 0 0 0
SMALL
GASTEIGER

@<TRIPOS>ATOM
      1 C           0.0000    0.0000    0.0000 C.3     1  UNL1        0.0738
      2 C           0.0000    0.0000    0.0000 C.ar    1  UNL1        0.1424
      3 N           0.0000    0.0000    0.0000 N.ar    1  UNL1       -0.2141
      4 C           0.0000    0.0000    0.0000 C.ar    1  UNL1        0.1578
      5 N           0.0000    0.0000    0.0000 N.pl3   1  UNL1       -0.1696
      6 C           0.0000    0.0000    0.0000 C.ar    1  UNL1        0.1849
      7 N           0.0000    0.0000    0.0000 N.ar    1  UNL1       -0.2208
      8 C           0.0000    0.0000    0.0000 C.ar    1  UNL1        0.1120
      9 C           0.0000    0.0000    0.0000 C.ar    1  UNL1        0.1065
     10 C           0.0000    0.0000    0.0000 C.2     1  UNL1        0.2766
     11 O           0.0000    0.0000    0.0000 O.2     1  UNL1       -0.2674
     12 N           0.0000    0.0000    0.0000 N.am    1  UNL1       -0.1744
     13 C           0.0000    0.0000    0.0000 C.ar    1  UNL1        0.0802
     14 C           0.0000    0.0000    0.0000 C.ar    1  UNL1       -0.0057
     15 C           0.0000    0.0000    0.0000 C.3     1  UNL1        0.0324
     16 C           0.0000    0.0000    0.0000 C.ar    1  UNL1       -0.0029
     17 C           0.0000    0.0000    0.0000 C.ar    1  UNL1        0.0006
     18 C           0.0000    0.0000    0.0000 C.ar    1  UNL1        0.0127
     19 C           0.0000    0.0000    0.0000 C.ar    1  UNL1        0.0726
     20 CL          0.0000    0.0000    0.0000 Cl      1  UNL1       -0.0809
     21 S           0.0000    0.0000    0.0000 S.2     1  UNL1       -0.0450
     22 C           0.0000    0.0000    0.0000 C.ar    1  UNL1        0.0705
     23 C           0.0000    0.0000    0.0000 C.ar    1  UNL1        0.1360
     24 N           0.0000    0.0000    0.0000 N.pl3   1  UNL1       -0.2903
     25 C           0.0000    0.0000    0.0000 C.3     1  UNL1        0.1095
     26 C           0.0000    0.0000    0.0000 C.3     1  UNL1        0.0939
     27 N           0.0000    0.0000    0.0000 N.3     1  UNL1       -0.2675
     28 C           0.0000    0.0000    0.0000 C.3     1  UNL1        0.1082
     29 C           0.0000    0.0000    0.0000 C.3     1  UNL1        0.1993
     30 O           0.0000    0.0000    0.0000 O.3     1  UNL1       -0.2189
     31 C           0.0000    0.0000    0.0000 C.3     1  UNL1        0.0939
     32 C           0.0000    0.0000    0.0000 C.3     1  UNL1        0.1095
     33 N           0.0000    0.0000    0.0000 N.ar    1  UNL1       -0.2159
@<TRIPOS>BOND
     1     1     2    1
     2     2     3   ar
     3     3     4   ar
     4     4     5    1
     5     5     6    1
     6     6     7   ar
     7     7     8   ar
     8     8     9   ar
     9     9    10    1
    10    10    11    2
    11    10    12   am
    12    12    13    1
    13    13    14   ar
    14    14    15    1
    15    14    16   ar
    16    16    17   ar
    17    17    18   ar
    18    18    19   ar
    19    13    19   ar
    20    19    20    1
    21     9    21   ar
    22     6    21   ar
    23     4    22   ar
    24    22    23   ar
    25    23    24    1
    26    24    25    1
    27    25    26    1
    28    26    27    1
    29    27    28    1
    30    28    29    1
    31    29    30    1
    32    27    31    1
    33    31    32    1
    34    24    32    1
    35    23    33   ar
    36     2    33   ar
