@<TRIPOS>MOLECULE
*****
 30 31 0 0 0
SMALL
GASTEIGER

@<TRIPOS>ATOM
      1 C           0.0000    0.0000    0.0000 C.3     1  UNL1        0.0321
      2 C           0.0000    0.0000    0.0000 C.2     1  UNL1       -0.0092
      3 C           0.0000    0.0000    0.0000 C.2     1  UNL1        0.0693
      4 C           0.0000    0.0000    0.0000 C.2     1  UNL1        0.0163
      5 C           0.0000    0.0000    0.0000 C.2     1  UNL1        0.0014
      6 N           0.0000    0.0000    0.0000 N.pl3   1  UNL1       -0.1780
      7 C           0.0000    0.0000    0.0000 C.ar    1  UNL1        0.2420
      8 N           0.0000    0.0000    0.0000 N.ar    1  UNL1       -0.2106
      9 C           0.0000    0.0000    0.0000 C.ar    1  UNL1        0.1086
     10 C           0.0000    0.0000    0.0000 C.ar    1  UNL1        0.1235
     11 C           0.0000    0.0000    0.0000 C.3     1  UNL1        0.4227
     12 F           0.0000    0.0000    0.0000 F       1  UNL1       -0.1657
     13 F           0.0000    0.0000    0.0000 F       1  UNL1       -0.1657
     14 F           0.0000    0.0000    0.0000 F       1  UNL1       -0.1657
     15 C           0.0000    0.0000    0.0000 C.ar    1  UNL1        0.1562
     16 N           0.0000    0.0000    0.0000 N.pl3   1  UNL1       -0.2154
     17 C           0.0000    0.0000    0.0000 C.3     1  UNL1        0.1402
     18 C           0.0000    0.0000    0.0000 C.ar    1  UNL1        0.0007
     19 C           0.0000    0.0000    0.0000 C.ar    1  UNL1       -0.0025
     20 C           0.0000    0.0000    0.0000 C.ar    1  UNL1        0.0011
     21 C           0.0000    0.0000    0.0000 C.ar    1  UNL1        0.0161
     22 C           0.0000    0.0000    0.0000 C.ar    1  UNL1        0.0682
     23 N           0.0000    0.0000    0.0000 N.pl3   1  UNL1       -0.1925
     24 C           0.0000    0.0000    0.0000 C.3     1  UNL1        0.1388
     25 S           0.0000    0.0000    0.0000 S.O2    1  UNL1        0.0588
     26 C           0.0000    0.0000    0.0000 C.3     1  UNL1        0.1999
     27 O           0.0000    0.0000    0.0000 O.2     1  UNL1       -0.1542
     28 O           0.0000    0.0000    0.0000 O.2     1  UNL1       -0.1542
     29 C           0.0000    0.0000    0.0000 C.ar    1  UNL1        0.0136
     30 N           0.0000    0.0000    0.0000 N.ar    1  UNL1       -0.1958
@<TRIPOS>BOND
     1     1     2    1
     2     2     3    2
     3     3     4    1
     4     4     5    2
     5     3     6    1
     6     6     7    1
     7     7     8   ar
     8     8     9   ar
     9     9    10   ar
    10    10    11    1
    11    11    12    1
    12    11    13    1
    13    11    14    1
    14    10    15   ar
    15    15    16    1
    16    16    17    1
    17    17    18    1
    18    18    19   ar
    19    19    20   ar
    20    20    21   ar
    21    21    22   ar
    22    22    23    1
    23    23    24    1
    24    23    25    1
    25    25    26    1
    26    25    27    2
    27    25    28    2
    28    22    29   ar
    29    18    29   ar
    30    15    30   ar
    31     7    30   ar
