@<TRIPOS>MOLECULE
*****
 24 26 0 0 0
SMALL
GASTEIGER

@<TRIPOS>ATOM
      1 C           0.0000    0.0000    0.0000 C.3     1  UNL1        0.0192
      2 C           0.0000    0.0000    0.0000 C.3     1  UNL1        0.0803
      3 N           0.0000    0.0000    0.0000 N.3     1  UNL1       -0.1342
      4 C           0.0000    0.0000    0.0000 C.3     1  UNL1        0.0391
      5 C           0.0000    0.0000    0.0000 C.3     1  UNL1        0.0936
      6 N           0.0000    0.0000    0.0000 N.pl3   1  UNL1       -0.2919
      7 C           0.0000    0.0000    0.0000 C.ar    1  UNL1        0.1526
      8 C           0.0000    0.0000    0.0000 C.ar    1  UNL1        0.1337
      9 N           0.0000    0.0000    0.0000 N.ar    1  UNL1       -0.2314
     10 C           0.0000    0.0000    0.0000 C.ar    1  UNL1        0.1456
     11 S           0.0000    0.0000    0.0000 S.3     1  UNL1       -0.0643
     12 C           0.0000    0.0000    0.0000 C.ar    1  UNL1        0.0428
     13 C           0.0000    0.0000    0.0000 C.ar    1  UNL1        0.0075
     14 C           0.0000    0.0000    0.0000 C.ar    1  UNL1        0.0020
     15 C           0.0000    0.0000    0.0000 C.ar    1  UNL1        0.0189
     16 C           0.0000    0.0000    0.0000 C.ar    1  UNL1        0.1001
     17 N           0.0000    0.0000    0.0000 N.pl3   1  UNL1       -0.1272
     18 C           0.0000    0.0000    0.0000 C.ar    1  UNL1        0.0803
     19 CL          0.0000    0.0000    0.0000 Cl      1  UNL1       -0.0803
     20 C           0.0000    0.0000    0.0000 C.ar    1  UNL1        0.1948
     21 N           0.0000    0.0000    0.0000 N.pl3   1  UNL1       -0.1050
     22 N           0.0000    0.0000    0.0000 N.ar    1  UNL1       -0.2092
     23 C           0.0000    0.0000    0.0000 C.3     1  UNL1        0.0936
     24 C           0.0000    0.0000    0.0000 C.3     1  UNL1        0.0391
@<TRIPOS>BOND
     1     1     2    1
     2     2     3    1
     3     2     4    1
     4     4     5    1
     5     5     6    1
     6     6     7    1
     7     7     8   ar
     8     8     9   ar
     9     9    10   ar
    10    10    11    1
    11    11    12    1
    12    12    13   ar
    13    13    14   ar
    14    14    15   ar
    15    15    16   ar
    16    16    17    1
    17    16    18   ar
    18    12    18   ar
    19    18    19    1
    20    10    20   ar
    21    20    21    1
    22    20    22   ar
    23     7    22   ar
    24     6    23    1
    25    23    24    1
    26     2    24    1
