@<TRIPOS>MOLECULE
*****
 32 34 0 0 0
SMALL
GASTEIGER

@<TRIPOS>ATOM
      1 C           0.0000    0.0000    0.0000 C.3     1  UNL1        0.1388
      2 N           0.0000    0.0000    0.0000 N.am    1  UNL1       -0.1997
      3 C           0.0000    0.0000    0.0000 C.2     1  UNL1        0.2670
      4 O           0.0000    0.0000    0.0000 O.2     1  UNL1       -0.2683
      5 C           0.0000    0.0000    0.0000 C.ar    1  UNL1        0.0825
      6 C           0.0000    0.0000    0.0000 C.ar    1  UNL1        0.0081
      7 C           0.0000    0.0000    0.0000 C.ar    1  UNL1        0.0152
      8 C           0.0000    0.0000    0.0000 C.ar    1  UNL1        0.0555
      9 N           0.0000    0.0000    0.0000 N.am    1  UNL1       -0.2646
     10 C           0.0000    0.0000    0.0000 C.2     1  UNL1        0.1517
     11 S           0.0000    0.0000    0.0000 S.2     1  UNL1       -0.0174
     12 N           0.0000    0.0000    0.0000 N.am    1  UNL1       -0.2184
     13 C           0.0000    0.0000    0.0000 C.ar    1  UNL1        0.0597
     14 C           0.0000    0.0000    0.0000 C.ar    1  UNL1        0.0160
     15 C           0.0000    0.0000    0.0000 C.ar    1  UNL1        0.0115
     16 C           0.0000    0.0000    0.0000 C.ar    1  UNL1        0.0724
     17 C           0.0000    0.0000    0.0000 C.1     1  UNL1        0.1004
     18 N           0.0000    0.0000    0.0000 N.1     1  UNL1       -0.1908
     19 C           0.0000    0.0000    0.0000 C.ar    1  UNL1        0.0823
     20 C           0.0000    0.0000    0.0000 C.3     1  UNL1        0.4192
     21 F           0.0000    0.0000    0.0000 F       1  UNL1       -0.1658
     22 F           0.0000    0.0000    0.0000 F       1  UNL1       -0.1658
     23 F           0.0000    0.0000    0.0000 F       1  UNL1       -0.1658
     24 C           0.0000    0.0000    0.0000 C.ar    1  UNL1        0.0198
     25 C           0.0000    0.0000    0.0000 C.2     1  UNL1        0.2507
     26 O           0.0000    0.0000    0.0000 O.2     1  UNL1       -0.2724
     27 C           0.0000    0.0000    0.0000 C.3     1  UNL1        0.1327
     28 C           0.0000    0.0000    0.0000 C.3     1  UNL1        0.0296
     29 C           0.0000    0.0000    0.0000 C.3     1  UNL1        0.0296
     30 C           0.0000    0.0000    0.0000 C.ar    1  UNL1        0.0447
     31 C           0.0000    0.0000    0.0000 C.ar    1  UNL1        0.1457
     32 F           0.0000    0.0000    0.0000 F       1  UNL1       -0.2040
@<TRIPOS>BOND
     1     1     2    1
     2     2     3   am
     3     3     4    2
     4     3     5    1
     5     5     6   ar
     6     6     7   ar
     7     7     8   ar
     8     8     9    1
     9     9    10    1
    10    10    11    2
    11    10    12    1
    12    12    13    1
    13    13    14   ar
    14    14    15   ar
    15    15    16   ar
    16    16    17    1
    17    17    18    3
    18    16    19   ar
    19    19    20    1
    20    20    21    1
    21    20    22    1
    22    20    23    1
    23    19    24   ar
    24    13    24   ar
    25    12    25   am
    26    25    26    2
    27    25    27    1
    28     9    27    1
    29    27    28    1
    30    27    29    1
    31     8    30   ar
    32    30    31   ar
    33     5    31   ar
    34    31    32    1
