@<TRIPOS>MOLECULE
*****
 24 26 0 0 0
SMALL
GASTEIGER

@<TRIPOS>ATOM
      1 N           0.0000    0.0000    0.0000 N.1     1  UNL1       -0.1908
      2 C           0.0000    0.0000    0.0000 C.1     1  UNL1        0.1013
      3 C           0.0000    0.0000    0.0000 C.ar    1  UNL1        0.0792
      4 C           0.0000    0.0000    0.0000 C.ar    1  UNL1        0.0142
      5 C           0.0000    0.0000    0.0000 C.ar    1  UNL1        0.0376
      6 C           0.0000    0.0000    0.0000 C.ar    1  UNL1        0.1393
      7 O           0.0000    0.0000    0.0000 O.3     1  UNL1       -0.4790
      8 C           0.0000    0.0000    0.0000 C.3     1  UNL1        0.1693
      9 C           0.0000    0.0000    0.0000 C.3     1  UNL1        0.0651
     10 C           0.0000    0.0000    0.0000 C.3     1  UNL1        0.0974
     11 N           0.0000    0.0000    0.0000 N.am    1  UNL1       -0.2758
     12 C           0.0000    0.0000    0.0000 C.2     1  UNL1        0.2490
     13 O           0.0000    0.0000    0.0000 O.2     1  UNL1       -0.2699
     14 C           0.0000    0.0000    0.0000 C.ar    1  UNL1        0.0536
     15 C           0.0000    0.0000    0.0000 C.ar    1  UNL1        0.0045
     16 C           0.0000    0.0000    0.0000 C.ar    1  UNL1        0.0001
     17 C           0.0000    0.0000    0.0000 C.ar    1  UNL1        0.0000
     18 C           0.0000    0.0000    0.0000 C.ar    1  UNL1        0.0001
     19 C           0.0000    0.0000    0.0000 C.ar    1  UNL1        0.0045
     20 C           0.0000    0.0000    0.0000 C.3     1  UNL1        0.0974
     21 C           0.0000    0.0000    0.0000 C.3     1  UNL1        0.0651
     22 C           0.0000    0.0000    0.0000 C.ar    1  UNL1        0.0490
     23 C           0.0000    0.0000    0.0000 C.ar    1  UNL1        0.0703
     24 CL          0.0000    0.0000    0.0000 Cl      1  UNL1       -0.0814
@<TRIPOS>BOND
     1     1     2    3
     2     2     3    1
     3     3     4   ar
     4     4     5   ar
     5     5     6   ar
     6     6     7    1
     7     7     8    1
     8     8     9    1
     9     9    10    1
    10    10    11    1
    11    11    12   am
    12    12    13    2
    13    12    14    1
    14    14    15   ar
    15    15    16   ar
    16    16    17   ar
    17    17    18   ar
    18    18    19   ar
    19    14    19   ar
    20    11    20    1
    21    20    21    1
    22     8    21    1
    23     6    22   ar
    24    22    23   ar
    25     3    23   ar
    26    23    24    1
