@<TRIPOS>MOLECULE
*****
 37 41 0 0 0
SMALL
GASTEIGER

@<TRIPOS>ATOM
      1 C           0.0000    0.0000    0.0000 C.3     1  UNL1        0.0188
      2 C           0.0000    0.0000    0.0000 C.3     1  UNL1        0.0722
      3 N           0.0000    0.0000    0.0000 N.3     1  UNL1       -0.2703
      4 C           0.0000    0.0000    0.0000 C.3     1  UNL1        0.0897
      5 C           0.0000    0.0000    0.0000 C.3     1  UNL1        0.0899
      6 N           0.0000    0.0000    0.0000 N.3     1  UNL1       -0.2665
      7 C           0.0000    0.0000    0.0000 C.3     1  UNL1        0.1008
      8 C           0.0000    0.0000    0.0000 C.ar    1  UNL1        0.0131
      9 C           0.0000    0.0000    0.0000 C.ar    1  UNL1        0.0016
     10 C           0.0000    0.0000    0.0000 C.ar    1  UNL1        0.0359
     11 C           0.0000    0.0000    0.0000 C.ar    1  UNL1        0.1547
     12 N           0.0000    0.0000    0.0000 N.pl3   1  UNL1       -0.1588
     13 C           0.0000    0.0000    0.0000 C.ar    1  UNL1        0.2423
     14 N           0.0000    0.0000    0.0000 N.ar    1  UNL1       -0.2082
     15 C           0.0000    0.0000    0.0000 C.ar    1  UNL1        0.1330
     16 C           0.0000    0.0000    0.0000 C.ar    1  UNL1        0.1768
     17 F           0.0000    0.0000    0.0000 F       1  UNL1       -0.2009
     18 C           0.0000    0.0000    0.0000 C.ar    1  UNL1        0.1132
     19 C           0.0000    0.0000    0.0000 C.ar    1  UNL1        0.0238
     20 C           0.0000    0.0000    0.0000 C.ar    1  UNL1        0.0329
     21 C           0.0000    0.0000    0.0000 C.ar    1  UNL1        0.1591
     22 F           0.0000    0.0000    0.0000 F       1  UNL1       -0.2025
     23 C           0.0000    0.0000    0.0000 C.ar    1  UNL1        0.1256
     24 N           0.0000    0.0000    0.0000 N.ar    1  UNL1       -0.2287
     25 C           0.0000    0.0000    0.0000 C.ar    1  UNL1        0.1207
     26 C           0.0000    0.0000    0.0000 C.3     1  UNL1        0.0718
     27 N           0.0000    0.0000    0.0000 N.ar    1  UNL1       -0.3167
     28 C           0.0000    0.0000    0.0000 C.3     1  UNL1        0.0867
     29 C           0.0000    0.0000    0.0000 C.3     1  UNL1        0.0245
     30 C           0.0000    0.0000    0.0000 C.3     1  UNL1        0.0245
     31 C           0.0000    0.0000    0.0000 C.ar    1  UNL1        0.0808
     32 C           0.0000    0.0000    0.0000 C.ar    1  UNL1        0.0205
     33 N           0.0000    0.0000    0.0000 N.ar    1  UNL1       -0.2098
     34 N           0.0000    0.0000    0.0000 N.ar    1  UNL1       -0.2276
     35 C           0.0000    0.0000    0.0000 C.ar    1  UNL1        0.0974
     36 C           0.0000    0.0000    0.0000 C.3     1  UNL1        0.0899
     37 C           0.0000    0.0000    0.0000 C.3     1  UNL1        0.0897
@<TRIPOS>BOND
     1     1     2    1
     2     2     3    1
     3     3     4    1
     4     4     5    1
     5     5     6    1
     6     6     7    1
     7     7     8    1
     8     8     9   ar
     9     9    10   ar
    10    10    11   ar
    11    11    12    1
    12    12    13    1
    13    13    14   ar
    14    14    15   ar
    15    15    16   ar
    16    16    17    1
    17    16    18   ar
    18    18    19    1
    19    19    20   ar
    20    20    21   ar
    21    21    22    1
    22    21    23   ar
    23    23    24   ar
    24    24    25   ar
    25    25    26    1
    26    25    27   ar
    27    27    28    1
    28    28    29    1
    29    28    30    1
    30    27    31   ar
    31    23    31   ar
    32    31    32   ar
    33    19    32   ar
    34    18    33   ar
    35    13    33   ar
    36    11    34   ar
    37    34    35   ar
    38     8    35   ar
    39     6    36    1
    40    36    37    1
    41     3    37    1
