@<TRIPOS>MOLECULE
*****
 26 29 0 0 0
SMALL
GASTEIGER

@<TRIPOS>ATOM
      1 C           0.0000    0.0000    0.0000 C.3     1  UNL1        0.0307
      2 C           0.0000    0.0000    0.0000 C.2     1  UNL1       -0.0241
      3 C           0.0000    0.0000    0.0000 C.2     1  UNL1        0.0179
      4 C           0.0000    0.0000    0.0000 C.2     1  UNL1        0.1217
      5 N           0.0000    0.0000    0.0000 N.2     1  UNL1       -0.1464
      6 C           0.0000    0.0000    0.0000 C.ar    1  UNL1        0.1229
      7 C           0.0000    0.0000    0.0000 C.ar    1  UNL1        0.1213
      8 N           0.0000    0.0000    0.0000 N.ar    1  UNL1       -0.2234
      9 C           0.0000    0.0000    0.0000 C.ar    1  UNL1        0.1640
     10 C           0.0000    0.0000    0.0000 C.ar    1  UNL1        0.0417
     11 C           0.0000    0.0000    0.0000 C.ar    1  UNL1        0.0392
     12 C           0.0000    0.0000    0.0000 C.ar    1  UNL1        0.1522
     13 N           0.0000    0.0000    0.0000 N.pl3   1  UNL1       -0.2898
     14 C           0.0000    0.0000    0.0000 C.3     1  UNL1        0.0925
     15 C           0.0000    0.0000    0.0000 C.3     1  UNL1        0.0235
     16 C           0.0000    0.0000    0.0000 C.3     1  UNL1        0.0261
     17 C           0.0000    0.0000    0.0000 C.3     1  UNL1        0.0968
     18 C           0.0000    0.0000    0.0000 C.ar    1  UNL1       -0.0021
     19 C           0.0000    0.0000    0.0000 C.ar    1  UNL1       -0.0025
     20 C           0.0000    0.0000    0.0000 C.ar    1  UNL1        0.0020
     21 C           0.0000    0.0000    0.0000 C.ar    1  UNL1        0.0296
     22 C           0.0000    0.0000    0.0000 C.ar    1  UNL1        0.1399
     23 F           0.0000    0.0000    0.0000 F       1  UNL1       -0.2042
     24 C           0.0000    0.0000    0.0000 C.ar    1  UNL1        0.0270
     25 N           0.0000    0.0000    0.0000 N.ar    1  UNL1       -0.1486
     26 N           0.0000    0.0000    0.0000 N.ar    1  UNL1       -0.2080
@<TRIPOS>BOND
     1     1     2    1
     2     2     3    2
     3     3     4    1
     4     4     5    2
     5     4     6    1
     6     6     7   ar
     7     7     8   ar
     8     8     9   ar
     9     9    10   ar
    10    10    11   ar
    11    11    12   ar
    12    12    13    1
    13    13    14    1
    14    14    15    1
    15    15    16    1
    16    16    17    1
    17    13    17    1
    18    17    18    1
    19    18    19   ar
    20    19    20   ar
    21    20    21   ar
    22    21    22   ar
    23    22    23    1
    24    22    24   ar
    25    18    24   ar
    26    12    25   ar
    27    25    26   ar
    28     6    26   ar
    29     9    26   ar
