@<TRIPOS>MOLECULE
*****
 33 35 0 0 0
SMALL
GASTEIGER

@<TRIPOS>ATOM
      1 C           0.0000    0.0000    0.0000 C.3     1  UNL1        0.1388
      2 N           0.0000    0.0000    0.0000 N.am    1  UNL1       -0.1997
      3 C           0.0000    0.0000    0.0000 C.2     1  UNL1        0.2661
      4 O           0.0000    0.0000    0.0000 O.2     1  UNL1       -0.2683
      5 C           0.0000    0.0000    0.0000 C.ar    1  UNL1        0.0702
      6 C           0.0000    0.0000    0.0000 C.ar    1  UNL1        0.0059
      7 C           0.0000    0.0000    0.0000 C.ar    1  UNL1        0.0002
      8 C           0.0000    0.0000    0.0000 C.ar    1  UNL1        0.0013
      9 C           0.0000    0.0000    0.0000 C.ar    1  UNL1        0.0167
     10 C           0.0000    0.0000    0.0000 C.ar    1  UNL1        0.0749
     11 N           0.0000    0.0000    0.0000 N.pl3   1  UNL1       -0.2122
     12 C           0.0000    0.0000    0.0000 C.ar    1  UNL1        0.0787
     13 C           0.0000    0.0000    0.0000 C.ar    1  UNL1        0.0526
     14 C           0.0000    0.0000    0.0000 C.ar    1  UNL1        0.1531
     15 N           0.0000    0.0000    0.0000 N.pl3   1  UNL1       -0.1910
     16 C           0.0000    0.0000    0.0000 C.ar    1  UNL1        0.1060
     17 C           0.0000    0.0000    0.0000 C.ar    1  UNL1        0.0209
     18 C           0.0000    0.0000    0.0000 C.ar    1  UNL1        0.0161
     19 C           0.0000    0.0000    0.0000 C.ar    1  UNL1        0.0511
     20 N           0.0000    0.0000    0.0000 N.pl3   1  UNL1       -0.3040
     21 C           0.0000    0.0000    0.0000 C.3     1  UNL1        0.1122
     22 C           0.0000    0.0000    0.0000 C.3     1  UNL1        0.1122
     23 C           0.0000    0.0000    0.0000 C.ar    1  UNL1        0.0527
     24 C           0.0000    0.0000    0.0000 C.ar    1  UNL1        0.1551
     25 O           0.0000    0.0000    0.0000 O.3     1  UNL1       -0.4701
     26 C           0.0000    0.0000    0.0000 C.3     1  UNL1        0.2525
     27 N           0.0000    0.0000    0.0000 N.ar    1  UNL1       -0.2274
     28 C           0.0000    0.0000    0.0000 C.ar    1  UNL1        0.1055
     29 C           0.0000    0.0000    0.0000 C.ar    1  UNL1        0.1058
     30 C           0.0000    0.0000    0.0000 C.3     1  UNL1        0.4212
     31 F           0.0000    0.0000    0.0000 F       1  UNL1       -0.1658
     32 F           0.0000    0.0000    0.0000 F       1  UNL1       -0.1658
     33 F           0.0000    0.0000    0.0000 F       1  UNL1       -0.1658
@<TRIPOS>BOND
     1     1     2    1
     2     2     3   am
     3     3     4    2
     4     3     5    1
     5     5     6   ar
     6     6     7   ar
     7     7     8   ar
     8     8     9   ar
     9     9    10   ar
    10     5    10   ar
    11    10    11    1
    12    11    12    1
    13    12    13   ar
    14    13    14   ar
    15    14    15    1
    16    15    16    1
    17    16    17   ar
    18    17    18   ar
    19    18    19   ar
    20    19    20    1
    21    20    21    1
    22    20    22    1
    23    19    23   ar
    24    23    24   ar
    25    16    24   ar
    26    24    25    1
    27    25    26    1
    28    14    27   ar
    29    27    28   ar
    30    28    29   ar
    31    12    29   ar
    32    29    30    1
    33    30    31    1
    34    30    32    1
    35    30    33    1
