@<TRIPOS>MOLECULE
*****
 25 28 0 0 0
SMALL
GASTEIGER

@<TRIPOS>ATOM
      1 O           0.0000    0.0000    0.0000 O.2     1  UNL1       -0.2866
      2 C           0.0000    0.0000    0.0000 C.2     1  UNL1        0.1960
      3 C           0.0000    0.0000    0.0000 C.ar    1  UNL1        0.0390
      4 C           0.0000    0.0000    0.0000 C.ar    1  UNL1        0.0032
      5 C           0.0000    0.0000    0.0000 C.ar    1  UNL1        0.0001
      6 C           0.0000    0.0000    0.0000 C.ar    1  UNL1        0.0000
      7 C           0.0000    0.0000    0.0000 C.ar    1  UNL1        0.0001
      8 C           0.0000    0.0000    0.0000 C.ar    1  UNL1        0.0032
      9 C           0.0000    0.0000    0.0000 C.ar    1  UNL1        0.0454
     10 C           0.0000    0.0000    0.0000 C.ar    1  UNL1        0.0325
     11 C           0.0000    0.0000    0.0000 C.ar    1  UNL1        0.0063
     12 C           0.0000    0.0000    0.0000 C.ar    1  UNL1        0.0038
     13 C           0.0000    0.0000    0.0000 C.ar    1  UNL1        0.0420
     14 C           0.0000    0.0000    0.0000 C.ar    1  UNL1        0.1957
     15 O           0.0000    0.0000    0.0000 O.3     1  UNL1       -0.2866
     16 C           0.0000    0.0000    0.0000 C.ar    1  UNL1        0.0420
     17 C           0.0000    0.0000    0.0000 C.ar    1  UNL1        0.0038
     18 S           0.0000    0.0000    0.0000 S.2     1  UNL1       -0.0867
     19 C           0.0000    0.0000    0.0000 C.ar    1  UNL1        0.0327
     20 C           0.0000    0.0000    0.0000 C.ar    1  UNL1        0.0485
     21 C           0.0000    0.0000    0.0000 C.ar    1  UNL1        0.1962
     22 O           0.0000    0.0000    0.0000 O.3     1  UNL1       -0.2866
     23 C           0.0000    0.0000    0.0000 C.ar    1  UNL1        0.0421
     24 C           0.0000    0.0000    0.0000 C.ar    1  UNL1        0.0039
     25 C           0.0000    0.0000    0.0000 C.ar    1  UNL1        0.0098
@<TRIPOS>BOND
     1     1     2    2
     2     2     3    1
     3     3     4   ar
     4     4     5   ar
     5     5     6   ar
     6     6     7   ar
     7     7     8   ar
     8     3     8   ar
     9     2     9    1
    10     9    10   ar
    11    10    11    1
    12    11    12   ar
    13    12    13   ar
    14    13    14   ar
    15    14    15    1
    16    14    16   ar
    17    16    17   ar
    18    11    17   ar
    19    10    18   ar
    20    18    19   ar
    21    19    20   ar
    22    20    21   ar
    23    21    22    1
    24    21    23   ar
    25    23    24   ar
    26    24    25   ar
    27     9    25   ar
    28    19    25   ar
