@<TRIPOS>MOLECULE
*****
 49 53 0 0 0
SMALL
GASTEIGER

@<TRIPOS>ATOM
      1 C           0.0000    0.0000    0.0000 C.3     1  UNL1        0.0001
      2 C           0.0000    0.0000    0.0000 C.3     1  UNL1        0.0022
      3 C           0.0000    0.0000    0.0000 C.3     1  UNL1        0.0298
      4 C           0.0000    0.0000    0.0000 C.3     1  UNL1        0.1614
      5 N           0.0000    0.0000    0.0000 N.am    1  UNL1       -0.1977
      6 C           0.0000    0.0000    0.0000 C.2     1  UNL1        0.2598
      7 O           0.0000    0.0000    0.0000 O.2     1  UNL1       -0.2715
      8 C           0.0000    0.0000    0.0000 C.3     1  UNL1        0.1535
      9 C           0.0000    0.0000    0.0000 C.3     1  UNL1        0.0288
     10 C           0.0000    0.0000    0.0000 C.3     1  UNL1        0.0022
     11 C           0.0000    0.0000    0.0000 C.3     1  UNL1        0.0001
     12 C           0.0000    0.0000    0.0000 C.3     1  UNL1        0.0018
     13 C           0.0000    0.0000    0.0000 C.3     1  UNL1        0.0219
     14 C           0.0000    0.0000    0.0000 C.3     1  UNL1        0.0939
     15 N           0.0000    0.0000    0.0000 N.am    1  UNL1       -0.2716
     16 C           0.0000    0.0000    0.0000 C.2     1  UNL1        0.2458
     17 O           0.0000    0.0000    0.0000 O.2     1  UNL1       -0.2730
     18 C           0.0000    0.0000    0.0000 C.3     1  UNL1        0.1711
     19 N           0.0000    0.0000    0.0000 N.am    1  UNL1       -0.1964
     20 C           0.0000    0.0000    0.0000 C.2     1  UNL1        0.2616
     21 O           0.0000    0.0000    0.0000 O.2     1  UNL1       -0.2715
     22 C           0.0000    0.0000    0.0000 C.3     1  UNL1        0.1730
     23 N           0.0000    0.0000    0.0000 N.am    1  UNL1       -0.1927
     24 C           0.0000    0.0000    0.0000 C.2     1  UNL1        0.2845
     25 O           0.0000    0.0000    0.0000 O.2     1  UNL1       -0.2666
     26 C           0.0000    0.0000    0.0000 C.ar    1  UNL1        0.1552
     27 C           0.0000    0.0000    0.0000 C.ar    1  UNL1        0.1226
     28 N           0.0000    0.0000    0.0000 N.ar    1  UNL1       -0.2390
     29 C           0.0000    0.0000    0.0000 C.ar    1  UNL1        0.1195
     30 C           0.0000    0.0000    0.0000 C.ar    1  UNL1        0.1196
     31 N           0.0000    0.0000    0.0000 N.ar    1  UNL1       -0.2360
     32 C           0.0000    0.0000    0.0000 C.3     1  UNL1        0.0290
     33 C           0.0000    0.0000    0.0000 C.3     1  UNL1        0.0022
     34 C           0.0000    0.0000    0.0000 C.3     1  UNL1        0.0001
     35 C           0.0000    0.0000    0.0000 C.3     1  UNL1        0.0000
     36 C           0.0000    0.0000    0.0000 C.3     1  UNL1        0.0001
     37 C           0.0000    0.0000    0.0000 C.3     1  UNL1        0.0022
     38 C           0.0000    0.0000    0.0000 C.3     1  UNL1        0.0269
     39 C           0.0000    0.0000    0.0000 C.3     1  UNL1        0.0022
     40 C           0.0000    0.0000    0.0000 C.3     1  UNL1        0.0022
     41 C           0.0000    0.0000    0.0000 C.3     1  UNL1        0.0022
     42 C           0.0000    0.0000    0.0000 C.2     1  UNL1        0.2471
     43 O           0.0000    0.0000    0.0000 O.2     1  UNL1       -0.2846
     44 C           0.0000    0.0000    0.0000 C.2     1  UNL1        0.3013
     45 O           0.0000    0.0000    0.0000 O.2     1  UNL1       -0.2652
     46 N           0.0000    0.0000    0.0000 N.am    1  UNL1       -0.2009
     47 C           0.0000    0.0000    0.0000 C.3     1  UNL1        0.0958
     48 C           0.0000    0.0000    0.0000 C.3     1  UNL1        0.0234
     49 C           0.0000    0.0000    0.0000 C.3     1  UNL1        0.0234
@<TRIPOS>BOND
     1     1     2    1
     2     2     3    1
     3     3     4    1
     4     4     5    1
     5     5     6   am
     6     6     7    2
     7     6     8    1
     8     8     9    1
     9     9    10    1
    10    10    11    1
    11    11    12    1
    12    12    13    1
    13     9    13    1
    14    13    14    1
    15    14    15    1
    16     8    15    1
    17    15    16   am
    18    16    17    2
    19    16    18    1
    20    18    19    1
    21    19    20   am
    22    20    21    2
    23    20    22    1
    24    22    23    1
    25    23    24   am
    26    24    25    2
    27    24    26    1
    28    26    27   ar
    29    27    28   ar
    30    28    29   ar
    31    29    30   ar
    32    30    31   ar
    33    26    31   ar
    34    22    32    1
    35    32    33    1
    36    33    34    1
    37    34    35    1
    38    35    36    1
    39    36    37    1
    40    32    37    1
    41    18    38    1
    42    38    39    1
    43    38    40    1
    44    38    41    1
    45     4    42    1
    46    42    43    2
    47    42    44    1
    48    44    45    2
    49    44    46   am
    50    46    47    1
    51    47    48    1
    52    48    49    1
    53    47    49    1
