@<TRIPOS>MOLECULE
*****
 23 24 0 0 0
SMALL
GASTEIGER

@<TRIPOS>ATOM
      1 C           0.0000    0.0000    0.0000 C.3     1  UNL1        0.0307
      2 C           0.0000    0.0000    0.0000 C.2     1  UNL1       -0.0243
      3 C           0.0000    0.0000    0.0000 C.2     1  UNL1        0.0136
      4 C           0.0000    0.0000    0.0000 C.2     1  UNL1        0.0012
      5 C           0.0000    0.0000    0.0000 C.2     1  UNL1        0.0000
      6 C           0.0000    0.0000    0.0000 C.ar    1  UNL1        0.0856
      7 C           0.0000    0.0000    0.0000 C.ar    1  UNL1        0.0553
      8 C           0.0000    0.0000    0.0000 C.ar    1  UNL1        0.1550
      9 N           0.0000    0.0000    0.0000 N.pl3   1  UNL1       -0.1940
     10 C           0.0000    0.0000    0.0000 C.ar    1  UNL1        0.0723
     11 C           0.0000    0.0000    0.0000 C.ar    1  UNL1        0.0197
     12 C           0.0000    0.0000    0.0000 C.ar    1  UNL1        0.0385
     13 C           0.0000    0.0000    0.0000 C.ar    1  UNL1        0.1469
     14 O           0.0000    0.0000    0.0000 O.3     1  UNL1       -0.4045
     15 C           0.0000    0.0000    0.0000 C.3     1  UNL1        0.5753
     16 F           0.0000    0.0000    0.0000 F       1  UNL1       -0.1328
     17 F           0.0000    0.0000    0.0000 F       1  UNL1       -0.1328
     18 F           0.0000    0.0000    0.0000 F       1  UNL1       -0.1328
     19 C           0.0000    0.0000    0.0000 C.ar    1  UNL1        0.0385
     20 C           0.0000    0.0000    0.0000 C.ar    1  UNL1        0.0197
     21 N           0.0000    0.0000    0.0000 N.ar    1  UNL1       -0.2072
     22 C           0.0000    0.0000    0.0000 C.ar    1  UNL1        0.2001
     23 N           0.0000    0.0000    0.0000 N.ar    1  UNL1       -0.2239
@<TRIPOS>BOND
     1     1     2    1
     2     2     3    2
     3     3     4    1
     4     4     5    2
     5     3     6    1
     6     6     7   ar
     7     7     8   ar
     8     8     9    1
     9     9    10    1
    10    10    11   ar
    11    11    12   ar
    12    12    13   ar
    13    13    14    1
    14    14    15    1
    15    15    16    1
    16    15    17    1
    17    15    18    1
    18    13    19   ar
    19    19    20   ar
    20    10    20   ar
    21     8    21   ar
    22    21    22   ar
    23    22    23   ar
    24     6    23   ar
