@<TRIPOS>MOLECULE
*****
 24 26 0 0 0
SMALL
GASTEIGER

@<TRIPOS>ATOM
      1 C           0.0000    0.0000    0.0000 C.3     1  UNL1        0.0737
      2 C           0.0000    0.0000    0.0000 C.ar    1  UNL1        0.1411
      3 N           0.0000    0.0000    0.0000 N.ar    1  UNL1       -0.2291
      4 C           0.0000    0.0000    0.0000 C.ar    1  UNL1        0.1032
      5 C           0.0000    0.0000    0.0000 C.ar    1  UNL1        0.0568
      6 C           0.0000    0.0000    0.0000 C.ar    1  UNL1        0.1566
      7 N           0.0000    0.0000    0.0000 N.pl3   1  UNL1       -0.1696
      8 C           0.0000    0.0000    0.0000 C.ar    1  UNL1        0.1849
      9 N           0.0000    0.0000    0.0000 N.ar    1  UNL1       -0.2208
     10 C           0.0000    0.0000    0.0000 C.ar    1  UNL1        0.1120
     11 C           0.0000    0.0000    0.0000 C.ar    1  UNL1        0.1065
     12 C           0.0000    0.0000    0.0000 C.2     1  UNL1        0.2766
     13 O           0.0000    0.0000    0.0000 O.2     1  UNL1       -0.2674
     14 N           0.0000    0.0000    0.0000 N.am    1  UNL1       -0.1744
     15 C           0.0000    0.0000    0.0000 C.ar    1  UNL1        0.0802
     16 C           0.0000    0.0000    0.0000 C.ar    1  UNL1       -0.0057
     17 C           0.0000    0.0000    0.0000 C.3     1  UNL1        0.0324
     18 C           0.0000    0.0000    0.0000 C.ar    1  UNL1       -0.0029
     19 C           0.0000    0.0000    0.0000 C.ar    1  UNL1        0.0006
     20 C           0.0000    0.0000    0.0000 C.ar    1  UNL1        0.0127
     21 C           0.0000    0.0000    0.0000 C.ar    1  UNL1        0.0726
     22 CL          0.0000    0.0000    0.0000 Cl      1  UNL1       -0.0809
     23 S           0.0000    0.0000    0.0000 S.2     1  UNL1       -0.0450
     24 N           0.0000    0.0000    0.0000 N.ar    1  UNL1       -0.2142
@<TRIPOS>BOND
     1     1     2    1
     2     2     3   ar
     3     3     4   ar
     4     4     5   ar
     5     5     6   ar
     6     6     7    1
     7     7     8    1
     8     8     9   ar
     9     9    10   ar
    10    10    11   ar
    11    11    12    1
    12    12    13    2
    13    12    14   am
    14    14    15    1
    15    15    16   ar
    16    16    17    1
    17    16    18   ar
    18    18    19   ar
    19    19    20   ar
    20    20    21   ar
    21    15    21   ar
    22    21    22    1
    23    11    23   ar
    24     8    23   ar
    25     6    24   ar
    26     2    24   ar
