@<TRIPOS>MOLECULE
*****
 20 21 0 0 0
SMALL
GASTEIGER

@<TRIPOS>ATOM
      1 C           0.0000    0.0000    0.0000 C.3     1  UNL1        0.0252
      2 C           0.0000    0.0000    0.0000 C.3     1  UNL1        0.1140
      3 N           0.0000    0.0000    0.0000 N.pl3   1  UNL1       -0.2161
      4 C           0.0000    0.0000    0.0000 C.ar    1  UNL1        0.2177
      5 N           0.0000    0.0000    0.0000 N.ar    1  UNL1       -0.0314
      6 O           0.0000    0.0000    0.0000 O.2     1  UNL1       -0.2400
      7 N           0.0000    0.0000    0.0000 N.ar    1  UNL1       -0.0389
      8 C           0.0000    0.0000    0.0000 C.ar    1  UNL1        0.2482
      9 C           0.0000    0.0000    0.0000 C.2     1  UNL1        0.4397
     10 N           0.0000    0.0000    0.0000 N.2     1  UNL1        0.2134
     11 O           0.0000    0.0000    0.0000 O.2     1  UNL1       -0.0111
     12 N           0.0000    0.0000    0.0000 N.pl3   1  UNL1       -0.0008
     13 C           0.0000    0.0000    0.0000 C.ar    1  UNL1        0.1842
     14 C           0.0000    0.0000    0.0000 C.ar    1  UNL1        0.0467
     15 C           0.0000    0.0000    0.0000 C.ar    1  UNL1        0.0338
     16 C           0.0000    0.0000    0.0000 C.ar    1  UNL1        0.1465
     17 F           0.0000    0.0000    0.0000 F       1  UNL1       -0.2036
     18 C           0.0000    0.0000    0.0000 C.ar    1  UNL1        0.0655
     19 BR          0.0000    0.0000    0.0000 Br      1  UNL1       -0.0465
     20 C           0.0000    0.0000    0.0000 C.ar    1  UNL1        0.0533
@<TRIPOS>BOND
     1     1     2    1
     2     2     3    1
     3     3     4    1
     4     4     5   ar
     5     5     6   ar
     6     6     7   ar
     7     7     8   ar
     8     4     8   ar
     9     8     9    1
    10     9    10    2
    11    10    11    1
    12     9    12    1
    13    12    13    1
    14    13    14   ar
    15    14    15   ar
    16    15    16   ar
    17    16    17    1
    18    16    18   ar
    19    18    19    1
    20    18    20   ar
    21    13    20   ar
