@<TRIPOS>MOLECULE
*****
 31 34 0 0 0
SMALL
GASTEIGER

@<TRIPOS>ATOM
      1 C           0.0000    0.0000    0.0000 C.3     1  UNL1        0.2526
      2 O           0.0000    0.0000    0.0000 O.3     1  UNL1       -0.4683
      3 C           0.0000    0.0000    0.0000 C.ar    1  UNL1        0.1739
      4 C           0.0000    0.0000    0.0000 C.ar    1  UNL1        0.0593
      5 C           0.0000    0.0000    0.0000 C.ar    1  UNL1        0.0890
      6 N           0.0000    0.0000    0.0000 N.ar    1  UNL1       -0.2238
      7 C           0.0000    0.0000    0.0000 C.ar    1  UNL1        0.2001
      8 N           0.0000    0.0000    0.0000 N.ar    1  UNL1       -0.2072
      9 C           0.0000    0.0000    0.0000 C.ar    1  UNL1        0.1550
     10 N           0.0000    0.0000    0.0000 N.pl3   1  UNL1       -0.1940
     11 C           0.0000    0.0000    0.0000 C.ar    1  UNL1        0.0731
     12 C           0.0000    0.0000    0.0000 C.ar    1  UNL1        0.0189
     13 C           0.0000    0.0000    0.0000 C.ar    1  UNL1        0.0318
     14 C           0.0000    0.0000    0.0000 C.ar    1  UNL1        0.1507
     15 F           0.0000    0.0000    0.0000 F       1  UNL1       -0.2033
     16 C           0.0000    0.0000    0.0000 C.ar    1  UNL1        0.0863
     17 CL          0.0000    0.0000    0.0000 Cl      1  UNL1       -0.0799
     18 C           0.0000    0.0000    0.0000 C.ar    1  UNL1        0.0302
     19 C           0.0000    0.0000    0.0000 C.ar    1  UNL1        0.0543
     20 C           0.0000    0.0000    0.0000 C.ar    1  UNL1        0.0444
     21 C           0.0000    0.0000    0.0000 C.ar    1  UNL1        0.1724
     22 O           0.0000    0.0000    0.0000 O.3     1  UNL1       -0.4724
     23 C           0.0000    0.0000    0.0000 C.3     1  UNL1        0.2070
     24 C           0.0000    0.0000    0.0000 C.3     1  UNL1        0.0646
     25 C           0.0000    0.0000    0.0000 C.3     1  UNL1        0.0760
     26 N           0.0000    0.0000    0.0000 N.3     1  UNL1       -0.2701
     27 C           0.0000    0.0000    0.0000 C.3     1  UNL1        0.0912
     28 C           0.0000    0.0000    0.0000 C.3     1  UNL1        0.1060
     29 N           0.0000    0.0000    0.0000 N.3     1  UNL1       -0.2151
     30 C           0.0000    0.0000    0.0000 C.3     1  UNL1        0.1060
     31 C           0.0000    0.0000    0.0000 C.3     1  UNL1        0.0912
@<TRIPOS>BOND
     1     1     2    1
     2     2     3    1
     3     3     4   ar
     4     4     5   ar
     5     5     6   ar
     6     6     7   ar
     7     7     8   ar
     8     8     9   ar
     9     9    10    1
    10    10    11    1
    11    11    12   ar
    12    12    13   ar
    13    13    14   ar
    14    14    15    1
    15    14    16   ar
    16    16    17    1
    17    16    18   ar
    18    11    18   ar
    19     9    19   ar
    20     5    19   ar
    21    19    20   ar
    22    20    21   ar
    23     3    21   ar
    24    21    22    1
    25    22    23    1
    26    23    24    1
    27    24    25    1
    28    25    26    1
    29    26    27    1
    30    27    28    1
    31    28    29    1
    32    29    30    1
    33    30    31    1
    34    26    31    1
