@<TRIPOS>MOLECULE
*****
 39 42 0 0 0
SMALL
GASTEIGER

@<TRIPOS>ATOM
      1 C           0.0000    0.0000    0.0000 C.3     1  UNL1        0.1388
      2 N           0.0000    0.0000    0.0000 N.am    1  UNL1       -0.1997
      3 C           0.0000    0.0000    0.0000 C.2     1  UNL1        0.2661
      4 O           0.0000    0.0000    0.0000 O.2     1  UNL1       -0.2683
      5 C           0.0000    0.0000    0.0000 C.ar    1  UNL1        0.0702
      6 C           0.0000    0.0000    0.0000 C.ar    1  UNL1        0.0059
      7 C           0.0000    0.0000    0.0000 C.ar    1  UNL1        0.0002
      8 C           0.0000    0.0000    0.0000 C.ar    1  UNL1        0.0013
      9 C           0.0000    0.0000    0.0000 C.ar    1  UNL1        0.0167
     10 C           0.0000    0.0000    0.0000 C.ar    1  UNL1        0.0749
     11 N           0.0000    0.0000    0.0000 N.pl3   1  UNL1       -0.2122
     12 C           0.0000    0.0000    0.0000 C.ar    1  UNL1        0.0787
     13 C           0.0000    0.0000    0.0000 C.ar    1  UNL1        0.0526
     14 C           0.0000    0.0000    0.0000 C.ar    1  UNL1        0.1531
     15 N           0.0000    0.0000    0.0000 N.pl3   1  UNL1       -0.1910
     16 C           0.0000    0.0000    0.0000 C.ar    1  UNL1        0.1056
     17 C           0.0000    0.0000    0.0000 C.ar    1  UNL1        0.0151
     18 C           0.0000    0.0000    0.0000 C.ar    1  UNL1       -0.0243
     19 C           0.0000    0.0000    0.0000 C.3     1  UNL1        0.0307
     20 C           0.0000    0.0000    0.0000 C.ar    1  UNL1       -0.0233
     21 C           0.0000    0.0000    0.0000 C.3     1  UNL1        0.0250
     22 C           0.0000    0.0000    0.0000 C.3     1  UNL1        0.0232
     23 C           0.0000    0.0000    0.0000 C.3     1  UNL1        0.0890
     24 N           0.0000    0.0000    0.0000 N.3     1  UNL1       -0.2180
     25 C           0.0000    0.0000    0.0000 C.3     1  UNL1        0.0890
     26 C           0.0000    0.0000    0.0000 C.3     1  UNL1        0.0232
     27 C           0.0000    0.0000    0.0000 C.ar    1  UNL1        0.0337
     28 C           0.0000    0.0000    0.0000 C.ar    1  UNL1        0.1532
     29 O           0.0000    0.0000    0.0000 O.3     1  UNL1       -0.4779
     30 C           0.0000    0.0000    0.0000 C.3     1  UNL1        0.1662
     31 C           0.0000    0.0000    0.0000 C.3     1  UNL1        0.0472
     32 C           0.0000    0.0000    0.0000 C.3     1  UNL1        0.0472
     33 N           0.0000    0.0000    0.0000 N.ar    1  UNL1       -0.2274
     34 C           0.0000    0.0000    0.0000 C.ar    1  UNL1        0.1055
     35 C           0.0000    0.0000    0.0000 C.ar    1  UNL1        0.1058
     36 C           0.0000    0.0000    0.0000 C.3     1  UNL1        0.4212
     37 F           0.0000    0.0000    0.0000 F       1  UNL1       -0.1658
     38 F           0.0000    0.0000    0.0000 F       1  UNL1       -0.1658
     39 F           0.0000    0.0000    0.0000 F       1  UNL1       -0.1658
@<TRIPOS>BOND
     1     1     2    1
     2     2     3   am
     3     3     4    2
     4     3     5    1
     5     5     6   ar
     6     6     7   ar
     7     7     8   ar
     8     8     9   ar
     9     9    10   ar
    10     5    10   ar
    11    10    11    1
    12    11    12    1
    13    12    13   ar
    14    13    14   ar
    15    14    15    1
    16    15    16    1
    17    16    17   ar
    18    17    18   ar
    19    18    19    1
    20    18    20   ar
    21    20    21    1
    22    21    22    1
    23    22    23    1
    24    23    24    1
    25    24    25    1
    26    25    26    1
    27    21    26    1
    28    20    27   ar
    29    27    28   ar
    30    16    28   ar
    31    28    29    1
    32    29    30    1
    33    30    31    1
    34    30    32    1
    35    14    33   ar
    36    33    34   ar
    37    34    35   ar
    38    12    35   ar
    39    35    36    1
    40    36    37    1
    41    36    38    1
    42    36    39    1
