@<TRIPOS>MOLECULE
*****
 30 34 0 0 0
SMALL
GASTEIGER

@<TRIPOS>ATOM
      1 C           0.0000    0.0000    0.0000 C.3     1  UNL1        0.0051
      2 C           0.0000    0.0000    0.0000 C.3     1  UNL1        0.0276
      3 C           0.0000    0.0000    0.0000 C.ar    1  UNL1       -0.0088
      4 C           0.0000    0.0000    0.0000 C.ar    1  UNL1       -0.0002
      5 C           0.0000    0.0000    0.0000 C.ar    1  UNL1        0.0351
      6 C           0.0000    0.0000    0.0000 C.ar    1  UNL1       -0.0133
      7 C           0.0000    0.0000    0.0000 C.ar    1  UNL1        0.0104
      8 C           0.0000    0.0000    0.0000 C.ar    1  UNL1        0.0436
      9 N           0.0000    0.0000    0.0000 N.pl3   1  UNL1       -0.3048
     10 C           0.0000    0.0000    0.0000 C.3     1  UNL1        0.1096
     11 C           0.0000    0.0000    0.0000 C.3     1  UNL1        0.1101
     12 N           0.0000    0.0000    0.0000 N.3     1  UNL1       -0.2144
     13 C           0.0000    0.0000    0.0000 C.3     1  UNL1        0.1101
     14 C           0.0000    0.0000    0.0000 C.3     1  UNL1        0.1096
     15 C           0.0000    0.0000    0.0000 C.3     1  UNL1        0.0545
     16 C           0.0000    0.0000    0.0000 C.3     1  UNL1        0.0103
     17 C           0.0000    0.0000    0.0000 C.3     1  UNL1        0.0103
     18 C           0.0000    0.0000    0.0000 C.ar    1  UNL1        0.0651
     19 N           0.0000    0.0000    0.0000 N.ar    1  UNL1       -0.2493
     20 C           0.0000    0.0000    0.0000 C.ar    1  UNL1        0.0817
     21 C           0.0000    0.0000    0.0000 C.ar    1  UNL1        0.0294
     22 C           0.0000    0.0000    0.0000 C.ar    1  UNL1        0.0699
     23 C           0.0000    0.0000    0.0000 C.1     1  UNL1        0.1005
     24 N           0.0000    0.0000    0.0000 N.1     1  UNL1       -0.1908
     25 C           0.0000    0.0000    0.0000 C.ar    1  UNL1        0.0104
     26 C           0.0000    0.0000    0.0000 C.ar    1  UNL1        0.0023
     27 C           0.0000    0.0000    0.0000 C.ar    1  UNL1        0.0219
     28 C           0.0000    0.0000    0.0000 C.ar    1  UNL1        0.0542
     29 C           0.0000    0.0000    0.0000 C.2     1  UNL1        0.1964
     30 O           0.0000    0.0000    0.0000 O.2     1  UNL1       -0.2865
@<TRIPOS>BOND
     1     1     2    1
     2     2     3    1
     3     3     4   ar
     4     4     5   ar
     5     5     6   ar
     6     6     7   ar
     7     7     8   ar
     8     3     8   ar
     9     8     9    1
    10     9    10    1
    11    10    11    1
    12    11    12    1
    13    12    13    1
    14    13    14    1
    15     9    14    1
    16     6    15    1
    17    15    16    1
    18    15    17    1
    19    15    18    1
    20    18    19   ar
    21    19    20   ar
    22    20    21   ar
    23    21    22   ar
    24    22    23    1
    25    23    24    3
    26    22    25   ar
    27    25    26   ar
    28    26    27   ar
    29    20    27   ar
    30    27    28   ar
    31    18    28   ar
    32    28    29    1
    33     5    29    1
    34    29    30    2
