@<TRIPOS>MOLECULE
*****
 35 39 0 0 0
SMALL
GASTEIGER

@<TRIPOS>ATOM
      1 C           0.0000    0.0000    0.0000 C.2     1  UNL1        0.0048
      2 C           0.0000    0.0000    0.0000 C.2     1  UNL1        0.0580
      3 C           0.0000    0.0000    0.0000 C.2     1  UNL1        0.2496
      4 O           0.0000    0.0000    0.0000 O.2     1  UNL1       -0.2699
      5 N           0.0000    0.0000    0.0000 N.am    1  UNL1       -0.2657
      6 C           0.0000    0.0000    0.0000 C.3     1  UNL1        0.1185
      7 C           0.0000    0.0000    0.0000 C.3     1  UNL1        0.1288
      8 N           0.0000    0.0000    0.0000 N.ar    1  UNL1       -0.2341
      9 N           0.0000    0.0000    0.0000 N.ar    1  UNL1       -0.1679
     10 C           0.0000    0.0000    0.0000 C.ar    1  UNL1        0.1067
     11 C           0.0000    0.0000    0.0000 C.ar    1  UNL1        0.0197
     12 C           0.0000    0.0000    0.0000 C.ar    1  UNL1        0.0047
     13 C           0.0000    0.0000    0.0000 C.ar    1  UNL1        0.0375
     14 C           0.0000    0.0000    0.0000 C.ar    1  UNL1        0.1453
     15 O           0.0000    0.0000    0.0000 O.3     1  UNL1       -0.4535
     16 C           0.0000    0.0000    0.0000 C.ar    1  UNL1        0.1453
     17 C           0.0000    0.0000    0.0000 C.ar    1  UNL1        0.0375
     18 C           0.0000    0.0000    0.0000 C.ar    1  UNL1        0.0031
     19 C           0.0000    0.0000    0.0000 C.ar    1  UNL1        0.0002
     20 C           0.0000    0.0000    0.0000 C.ar    1  UNL1        0.0031
     21 C           0.0000    0.0000    0.0000 C.ar    1  UNL1        0.0375
     22 C           0.0000    0.0000    0.0000 C.ar    1  UNL1        0.0375
     23 C           0.0000    0.0000    0.0000 C.ar    1  UNL1        0.0047
     24 C           0.0000    0.0000    0.0000 C.ar    1  UNL1        0.0896
     25 C           0.0000    0.0000    0.0000 C.ar    1  UNL1        0.1758
     26 N           0.0000    0.0000    0.0000 N.pl3   1  UNL1       -0.1070
     27 N           0.0000    0.0000    0.0000 N.ar    1  UNL1       -0.2055
     28 C           0.0000    0.0000    0.0000 C.ar    1  UNL1        0.2015
     29 N           0.0000    0.0000    0.0000 N.ar    1  UNL1       -0.2050
     30 C           0.0000    0.0000    0.0000 C.ar    1  UNL1        0.1654
     31 C           0.0000    0.0000    0.0000 C.3     1  UNL1        0.0576
     32 C           0.0000    0.0000    0.0000 C.3     1  UNL1        0.1813
     33 C           0.0000    0.0000    0.0000 C.2     1  UNL1        0.3825
     34 O           0.0000    0.0000    0.0000 O.co2   1  UNL1       -0.2438
     35 O           0.0000    0.0000    0.0000 O.co2   1  UNL1       -0.2438
@<TRIPOS>BOND
     1     1     2    2
     2     2     3    1
     3     3     4    2
     4     3     5   am
     5     5     6    1
     6     6     7    1
     7     7     8    1
     8     8     9   ar
     9     9    10   ar
    10    10    11    1
    11    11    12   ar
    12    12    13   ar
    13    13    14   ar
    14    14    15    1
    15    15    16    1
    16    16    17   ar
    17    17    18   ar
    18    18    19   ar
    19    19    20   ar
    20    20    21   ar
    21    16    21   ar
    22    14    22   ar
    23    22    23   ar
    24    11    23   ar
    25    10    24   ar
    26    24    25   ar
    27    25    26    1
    28    25    27   ar
    29    27    28   ar
    30    28    29   ar
    31    29    30   ar
    32    24    30   ar
    33     8    30   ar
    34     7    31    1
    35    31    32    1
    36     5    32    1
    37    32    33    1
    38    33    34   ar
    39    33    35   ar
