@<TRIPOS>MOLECULE
*****
 29 31 0 0 0
SMALL
GASTEIGER

@<TRIPOS>ATOM
      1 C           0.0000    0.0000    0.0000 C.3     1  UNL1        0.0322
      2 C           0.0000    0.0000    0.0000 C.2     1  UNL1       -0.0061
      3 C           0.0000    0.0000    0.0000 C.2     1  UNL1        0.1032
      4 N           0.0000    0.0000    0.0000 N.pl3   1  UNL1       -0.1748
      5 C           0.0000    0.0000    0.0000 C.ar    1  UNL1        0.2435
      6 N           0.0000    0.0000    0.0000 N.ar    1  UNL1       -0.2105
      7 C           0.0000    0.0000    0.0000 C.ar    1  UNL1        0.1105
      8 C           0.0000    0.0000    0.0000 C.ar    1  UNL1        0.1440
      9 C           0.0000    0.0000    0.0000 C.3     1  UNL1        0.4244
     10 F           0.0000    0.0000    0.0000 F       1  UNL1       -0.1656
     11 F           0.0000    0.0000    0.0000 F       1  UNL1       -0.1656
     12 F           0.0000    0.0000    0.0000 F       1  UNL1       -0.1656
     13 C           0.0000    0.0000    0.0000 C.ar    1  UNL1        0.2374
     14 O           0.0000    0.0000    0.0000 O.3     1  UNL1       -0.4359
     15 C           0.0000    0.0000    0.0000 C.ar    1  UNL1        0.1495
     16 C           0.0000    0.0000    0.0000 C.ar    1  UNL1        0.0376
     17 C           0.0000    0.0000    0.0000 C.ar    1  UNL1        0.0028
     18 C           0.0000    0.0000    0.0000 C.ar    1  UNL1       -0.0040
     19 C           0.0000    0.0000    0.0000 C.ar    1  UNL1       -0.0160
     20 C           0.0000    0.0000    0.0000 C.ar    1  UNL1        0.0653
     21 C           0.0000    0.0000    0.0000 C.2     1  UNL1        0.1760
     22 O           0.0000    0.0000    0.0000 O.2     1  UNL1       -0.2912
     23 C           0.0000    0.0000    0.0000 C.3     1  UNL1        0.0739
     24 C           0.0000    0.0000    0.0000 C.3     1  UNL1        0.0347
     25 N           0.0000    0.0000    0.0000 N.ar    1  UNL1       -0.1769
     26 C           0.0000    0.0000    0.0000 C.2     1  UNL1        0.1537
     27 C           0.0000    0.0000    0.0000 C.2     1  UNL1        0.0414
     28 O           0.0000    0.0000    0.0000 O.2     1  UNL1       -0.4701
     29 C           0.0000    0.0000    0.0000 C.3     1  UNL1        0.2525
@<TRIPOS>BOND
     1     1     2    1
     2     2     3    2
     3     3     4    1
     4     4     5    1
     5     5     6   ar
     6     6     7   ar
     7     7     8   ar
     8     8     9    1
     9     9    10    1
    10     9    11    1
    11     9    12    1
    12     8    13   ar
    13    13    14    1
    14    14    15    1
    15    15    16   ar
    16    16    17   ar
    17    17    18   ar
    18    18    19   ar
    19    19    20   ar
    20    15    20   ar
    21    20    21    1
    22    21    22    2
    23    21    23    1
    24    23    24    1
    25    19    24    1
    26    13    25   ar
    27     5    25   ar
    28     3    26    1
    29    26    27    2
    30    26    28    1
    31    28    29    1
