@<TRIPOS>MOLECULE
*****
 32 34 0 0 0
SMALL
GASTEIGER

@<TRIPOS>ATOM
      1 C           0.0000    0.0000    0.0000 C.3     1  UNL1        0.0307
      2 C           0.0000    0.0000    0.0000 C.2     1  UNL1       -0.0257
      3 C           0.0000    0.0000    0.0000 C.2     1  UNL1       -0.0028
      4 C           0.0000    0.0000    0.0000 C.2     1  UNL1       -0.0003
      5 C           0.0000    0.0000    0.0000 C.2     1  UNL1       -0.0000
      6 C           0.0000    0.0000    0.0000 C.ar    1  UNL1        0.0190
      7 C           0.0000    0.0000    0.0000 C.ar    1  UNL1        0.1005
      8 N           0.0000    0.0000    0.0000 N.ar    1  UNL1       -0.2251
      9 C           0.0000    0.0000    0.0000 C.ar    1  UNL1        0.1624
     10 N           0.0000    0.0000    0.0000 N.ar    1  UNL1       -0.2250
     11 C           0.0000    0.0000    0.0000 C.ar    1  UNL1        0.1038
     12 C           0.0000    0.0000    0.0000 C.ar    1  UNL1        0.0612
     13 C           0.0000    0.0000    0.0000 C.2     1  UNL1        0.2015
     14 O           0.0000    0.0000    0.0000 O.2     1  UNL1       -0.2864
     15 C           0.0000    0.0000    0.0000 C.ar    1  UNL1        0.0952
     16 C           0.0000    0.0000    0.0000 C.ar    1  UNL1        0.1454
     17 F           0.0000    0.0000    0.0000 F       1  UNL1       -0.2040
     18 C           0.0000    0.0000    0.0000 C.ar    1  UNL1        0.0313
     19 C           0.0000    0.0000    0.0000 C.ar    1  UNL1        0.0227
     20 C           0.0000    0.0000    0.0000 C.ar    1  UNL1        0.1196
     21 N           0.0000    0.0000    0.0000 N.pl3   1  UNL1       -0.0835
     22 S           0.0000    0.0000    0.0000 S.O2    1  UNL1        0.1326
     23 O           0.0000    0.0000    0.0000 O.2     1  UNL1       -0.1362
     24 O           0.0000    0.0000    0.0000 O.2     1  UNL1       -0.1362
     25 N           0.0000    0.0000    0.0000 N.3     1  UNL1       -0.1398
     26 C           0.0000    0.0000    0.0000 C.3     1  UNL1        0.1163
     27 C           0.0000    0.0000    0.0000 C.3     1  UNL1        0.0973
     28 C           0.0000    0.0000    0.0000 C.3     1  UNL1        0.0207
     29 C           0.0000    0.0000    0.0000 C.ar    1  UNL1        0.1620
     30 F           0.0000    0.0000    0.0000 F       1  UNL1       -0.2026
     31 C           0.0000    0.0000    0.0000 C.ar    1  UNL1        0.0404
     32 C           0.0000    0.0000    0.0000 C.ar    1  UNL1        0.0047
@<TRIPOS>BOND
     1     1     2    1
     2     2     3    2
     3     3     4    1
     4     4     5    2
     5     3     6    1
     6     6     7   ar
     7     7     8   ar
     8     8     9   ar
     9     9    10   ar
    10    10    11   ar
    11    11    12   ar
    12    12    13    1
    13    13    14    2
    14    13    15    1
    15    15    16   ar
    16    16    17    1
    17    16    18   ar
    18    18    19   ar
    19    19    20   ar
    20    20    21    1
    21    21    22    1
    22    22    23    2
    23    22    24    2
    24    22    25    1
    25    25    26    1
    26    25    27    1
    27    27    28    1
    28    20    29   ar
    29    15    29   ar
    30    29    30    1
    31    12    31   ar
    32     9    31   ar
    33    31    32   ar
    34     6    32   ar
