@<TRIPOS>MOLECULE
*****
 24 27 0 0 0
SMALL
GASTEIGER

@<TRIPOS>ATOM
      1 C           0.0000    0.0000    0.0000 C.3     1  UNL1        0.1079
      2 N           0.0000    0.0000    0.0000 N.3     1  UNL1       -0.2118
      3 C           0.0000    0.0000    0.0000 C.3     1  UNL1        0.1150
      4 C           0.0000    0.0000    0.0000 C.ar    1  UNL1       -0.0048
      5 C           0.0000    0.0000    0.0000 C.ar    1  UNL1       -0.0028
      6 C           0.0000    0.0000    0.0000 C.ar    1  UNL1        0.0012
      7 C           0.0000    0.0000    0.0000 C.ar    1  UNL1        0.0173
      8 C           0.0000    0.0000    0.0000 C.ar    1  UNL1        0.0774
      9 N           0.0000    0.0000    0.0000 N.ar    1  UNL1       -0.2456
     10 C           0.0000    0.0000    0.0000 C.ar    1  UNL1        0.0834
     11 C           0.0000    0.0000    0.0000 C.ar    1  UNL1        0.0487
     12 C           0.0000    0.0000    0.0000 C.ar    1  UNL1        0.1418
     13 F           0.0000    0.0000    0.0000 F       1  UNL1       -0.2041
     14 C           0.0000    0.0000    0.0000 C.ar    1  UNL1        0.0343
     15 C           0.0000    0.0000    0.0000 C.ar    1  UNL1        0.0585
     16 C           0.0000    0.0000    0.0000 C.ar    1  UNL1        0.0197
     17 C           0.0000    0.0000    0.0000 C.ar    1  UNL1       -0.0012
     18 C           0.0000    0.0000    0.0000 C.3     1  UNL1        0.0514
     19 C           0.0000    0.0000    0.0000 C.3     1  UNL1        0.1202
     20 N           0.0000    0.0000    0.0000 N.am    1  UNL1       -0.2013
     21 C           0.0000    0.0000    0.0000 C.2     1  UNL1        0.2649
     22 O           0.0000    0.0000    0.0000 O.2     1  UNL1       -0.2684
     23 C           0.0000    0.0000    0.0000 C.ar    1  UNL1        0.0012
     24 C           0.0000    0.0000    0.0000 C.ar    1  UNL1       -0.0028
@<TRIPOS>BOND
     1     1     2    1
     2     2     3    1
     3     3     4    1
     4     4     5   ar
     5     5     6   ar
     6     6     7   ar
     7     7     8    1
     8     8     9   ar
     9     9    10   ar
    10    10    11   ar
    11    11    12   ar
    12    12    13    1
    13    12    14   ar
    14    14    15   ar
    15    15    16   ar
    16    10    16   ar
    17    16    17   ar
    18     8    17   ar
    19    17    18    1
    20    18    19    1
    21    19    20    1
    22    20    21   am
    23    15    21    1
    24    21    22    2
    25     7    23   ar
    26    23    24   ar
    27     4    24   ar
