@<TRIPOS>MOLECULE
*****
 43 48 0 0 0
SMALL
GASTEIGER

@<TRIPOS>ATOM
      1 C           0.0000    0.0000    0.0000 C.2     1  UNL1        0.0368
      2 C           0.0000    0.0000    0.0000 C.2     1  UNL1        0.1934
      3 F           0.0000    0.0000    0.0000 F       1  UNL1       -0.1994
      4 C           0.0000    0.0000    0.0000 C.2     1  UNL1        0.2767
      5 O           0.0000    0.0000    0.0000 O.2     1  UNL1       -0.2674
      6 N           0.0000    0.0000    0.0000 N.am    1  UNL1       -0.2714
      7 C           0.0000    0.0000    0.0000 C.3     1  UNL1        0.1152
      8 C           0.0000    0.0000    0.0000 C.3     1  UNL1        0.1137
      9 N           0.0000    0.0000    0.0000 N.pl3   1  UNL1       -0.2899
     10 C           0.0000    0.0000    0.0000 C.ar    1  UNL1        0.1336
     11 N           0.0000    0.0000    0.0000 N.ar    1  UNL1       -0.1796
     12 C           0.0000    0.0000    0.0000 C.ar    1  UNL1        0.3208
     13 O           0.0000    0.0000    0.0000 O.3     1  UNL1       -0.4452
     14 C           0.0000    0.0000    0.0000 C.3     1  UNL1        0.2244
     15 C           0.0000    0.0000    0.0000 C.3     1  UNL1        0.1017
     16 C           0.0000    0.0000    0.0000 C.3     1  UNL1        0.0212
     17 C           0.0000    0.0000    0.0000 C.3     1  UNL1        0.0188
     18 C           0.0000    0.0000    0.0000 C.3     1  UNL1        0.0722
     19 N           0.0000    0.0000    0.0000 N.3     1  UNL1       -0.2696
     20 C           0.0000    0.0000    0.0000 C.3     1  UNL1        0.0897
     21 N           0.0000    0.0000    0.0000 N.ar    1  UNL1       -0.1971
     22 C           0.0000    0.0000    0.0000 C.ar    1  UNL1        0.0823
     23 C           0.0000    0.0000    0.0000 C.ar    1  UNL1        0.0266
     24 C           0.0000    0.0000    0.0000 C.3     1  UNL1        0.0519
     25 C           0.0000    0.0000    0.0000 C.3     1  UNL1        0.0959
     26 N           0.0000    0.0000    0.0000 N.pl3   1  UNL1       -0.3020
     27 C           0.0000    0.0000    0.0000 C.ar    1  UNL1        0.0489
     28 C           0.0000    0.0000    0.0000 C.ar    1  UNL1        0.0146
     29 C           0.0000    0.0000    0.0000 C.ar    1  UNL1        0.0013
     30 C           0.0000    0.0000    0.0000 C.ar    1  UNL1        0.0001
     31 C           0.0000    0.0000    0.0000 C.ar    1  UNL1        0.0020
     32 C           0.0000    0.0000    0.0000 C.ar    1  UNL1        0.0001
     33 C           0.0000    0.0000    0.0000 C.ar    1  UNL1        0.0009
     34 C           0.0000    0.0000    0.0000 C.ar    1  UNL1        0.0114
     35 C           0.0000    0.0000    0.0000 C.ar    1  UNL1        0.0588
     36 CL          0.0000    0.0000    0.0000 Cl      1  UNL1       -0.0822
     37 C           0.0000    0.0000    0.0000 C.ar    1  UNL1        0.0239
     38 C           0.0000    0.0000    0.0000 C.3     1  UNL1        0.1371
     39 C           0.0000    0.0000    0.0000 C.3     1  UNL1        0.1130
     40 C           0.0000    0.0000    0.0000 C.3     1  UNL1        0.1106
     41 C           0.0000    0.0000    0.0000 C.3     1  UNL1        0.1269
     42 C           0.0000    0.0000    0.0000 C.1     1  UNL1        0.0750
     43 N           0.0000    0.0000    0.0000 N.1     1  UNL1       -0.1958
@<TRIPOS>BOND
     1     1     2    2
     2     2     3    1
     3     2     4    1
     4     4     5    2
     5     4     6   am
     6     6     7    1
     7     7     8    1
     8     8     9    1
     9     9    10    1
    10    10    11   ar
    11    11    12   ar
    12    12    13    1
    13    13    14    1
    14    14    15    1
    15    15    16    1
    16    16    17    1
    17    17    18    1
    18    18    19    1
    19    15    19    1
    20    19    20    1
    21    12    21   ar
    22    21    22   ar
    23    22    23   ar
    24    10    23   ar
    25    23    24    1
    26    24    25    1
    27    25    26    1
    28    26    27    1
    29    27    28   ar
    30    28    29   ar
    31    29    30   ar
    32    30    31   ar
    33    31    32   ar
    34    32    33   ar
    35    33    34   ar
    36    34    35   ar
    37    35    36    1
    38    35    37   ar
    39    27    37   ar
    40    31    37   ar
    41    26    38    1
    42    22    38    1
    43     9    39    1
    44    39    40    1
    45     6    40    1
    46    40    41    1
    47    41    42    1
    48    42    43    3
