@<TRIPOS>MOLECULE
*****
 29 32 0 0 0
SMALL
GASTEIGER

@<TRIPOS>ATOM
      1 C           0.0000    0.0000    0.0000 C.3     1  UNL1        0.0051
      2 C           0.0000    0.0000    0.0000 C.3     1  UNL1        0.0276
      3 C           0.0000    0.0000    0.0000 C.ar    1  UNL1       -0.0088
      4 C           0.0000    0.0000    0.0000 C.ar    1  UNL1       -0.0002
      5 C           0.0000    0.0000    0.0000 C.ar    1  UNL1        0.0351
      6 C           0.0000    0.0000    0.0000 C.ar    1  UNL1       -0.0133
      7 C           0.0000    0.0000    0.0000 C.ar    1  UNL1        0.0104
      8 C           0.0000    0.0000    0.0000 C.ar    1  UNL1        0.0435
      9 N           0.0000    0.0000    0.0000 N.pl3   1  UNL1       -0.3077
     10 C           0.0000    0.0000    0.0000 C.3     1  UNL1        0.0908
     11 C           0.0000    0.0000    0.0000 C.3     1  UNL1        0.0232
     12 C           0.0000    0.0000    0.0000 C.3     1  UNL1        0.0908
     13 C           0.0000    0.0000    0.0000 C.3     1  UNL1        0.0232
     14 C           0.0000    0.0000    0.0000 C.3     1  UNL1        0.0545
     15 C           0.0000    0.0000    0.0000 C.3     1  UNL1        0.0103
     16 C           0.0000    0.0000    0.0000 C.3     1  UNL1        0.0103
     17 C           0.0000    0.0000    0.0000 C.ar    1  UNL1        0.0651
     18 N           0.0000    0.0000    0.0000 N.ar    1  UNL1       -0.2493
     19 C           0.0000    0.0000    0.0000 C.ar    1  UNL1        0.0817
     20 C           0.0000    0.0000    0.0000 C.ar    1  UNL1        0.0294
     21 C           0.0000    0.0000    0.0000 C.ar    1  UNL1        0.0699
     22 C           0.0000    0.0000    0.0000 C.1     1  UNL1        0.1005
     23 N           0.0000    0.0000    0.0000 N.1     1  UNL1       -0.1908
     24 C           0.0000    0.0000    0.0000 C.ar    1  UNL1        0.0104
     25 C           0.0000    0.0000    0.0000 C.ar    1  UNL1        0.0023
     26 C           0.0000    0.0000    0.0000 C.ar    1  UNL1        0.0219
     27 C           0.0000    0.0000    0.0000 C.ar    1  UNL1        0.0542
     28 C           0.0000    0.0000    0.0000 C.2     1  UNL1        0.1964
     29 O           0.0000    0.0000    0.0000 O.2     1  UNL1       -0.2865
@<TRIPOS>BOND
     1     1     2    1
     2     2     3    1
     3     3     4   ar
     4     4     5   ar
     5     5     6   ar
     6     6     7   ar
     7     7     8   ar
     8     3     8   ar
     9     8     9    1
    10     9    10    1
    11    10    11    1
    12     9    12    1
    13    12    13    1
    14     6    14    1
    15    14    15    1
    16    14    16    1
    17    14    17    1
    18    17    18   ar
    19    18    19   ar
    20    19    20   ar
    21    20    21   ar
    22    21    22    1
    23    22    23    3
    24    21    24   ar
    25    24    25   ar
    26    25    26   ar
    27    19    26   ar
    28    26    27   ar
    29    17    27   ar
    30    27    28    1
    31     5    28    1
    32    28    29    2
