@<TRIPOS>MOLECULE
*****
 29 30 0 0 0
SMALL
GASTEIGER

@<TRIPOS>ATOM
      1 C           0.0000    0.0000    0.0000 C.3     1  UNL1        0.0322
      2 C           0.0000    0.0000    0.0000 C.2     1  UNL1       -0.0062
      3 C           0.0000    0.0000    0.0000 C.2     1  UNL1        0.1017
      4 N           0.0000    0.0000    0.0000 N.pl3   1  UNL1       -0.1914
      5 C           0.0000    0.0000    0.0000 C.ar    1  UNL1        0.1531
      6 C           0.0000    0.0000    0.0000 C.ar    1  UNL1        0.0526
      7 C           0.0000    0.0000    0.0000 C.ar    1  UNL1        0.0787
      8 N           0.0000    0.0000    0.0000 N.pl3   1  UNL1       -0.2122
      9 C           0.0000    0.0000    0.0000 C.ar    1  UNL1        0.0749
     10 C           0.0000    0.0000    0.0000 C.ar    1  UNL1        0.0167
     11 C           0.0000    0.0000    0.0000 C.ar    1  UNL1        0.0013
     12 C           0.0000    0.0000    0.0000 C.ar    1  UNL1        0.0002
     13 C           0.0000    0.0000    0.0000 C.ar    1  UNL1        0.0059
     14 C           0.0000    0.0000    0.0000 C.ar    1  UNL1        0.0702
     15 C           0.0000    0.0000    0.0000 C.2     1  UNL1        0.2661
     16 O           0.0000    0.0000    0.0000 O.2     1  UNL1       -0.2683
     17 N           0.0000    0.0000    0.0000 N.am    1  UNL1       -0.1997
     18 C           0.0000    0.0000    0.0000 C.3     1  UNL1        0.1388
     19 C           0.0000    0.0000    0.0000 C.ar    1  UNL1        0.1058
     20 C           0.0000    0.0000    0.0000 C.3     1  UNL1        0.4212
     21 F           0.0000    0.0000    0.0000 F       1  UNL1       -0.1658
     22 F           0.0000    0.0000    0.0000 F       1  UNL1       -0.1658
     23 F           0.0000    0.0000    0.0000 F       1  UNL1       -0.1658
     24 C           0.0000    0.0000    0.0000 C.ar    1  UNL1        0.1055
     25 N           0.0000    0.0000    0.0000 N.ar    1  UNL1       -0.2274
     26 C           0.0000    0.0000    0.0000 C.2     1  UNL1        0.1536
     27 C           0.0000    0.0000    0.0000 C.2     1  UNL1        0.0414
     28 O           0.0000    0.0000    0.0000 O.2     1  UNL1       -0.4701
     29 C           0.0000    0.0000    0.0000 C.3     1  UNL1        0.2525
@<TRIPOS>BOND
     1     1     2    1
     2     2     3    2
     3     3     4    1
     4     4     5    1
     5     5     6   ar
     6     6     7   ar
     7     7     8    1
     8     8     9    1
     9     9    10   ar
    10    10    11   ar
    11    11    12   ar
    12    12    13   ar
    13    13    14   ar
    14     9    14   ar
    15    14    15    1
    16    15    16    2
    17    15    17   am
    18    17    18    1
    19     7    19   ar
    20    19    20    1
    21    20    21    1
    22    20    22    1
    23    20    23    1
    24    19    24   ar
    25    24    25   ar
    26     5    25   ar
    27     3    26    1
    28    26    27    2
    29    26    28    1
    30    28    29    1
