@<TRIPOS>MOLECULE
*****
 47 52 0 0 0
SMALL
GASTEIGER

@<TRIPOS>ATOM
      1 C           0.0000    0.0000    0.0000 C.3     1  UNL1        0.0904
      2 N           0.0000    0.0000    0.0000 N.3     1  UNL1       -0.2591
      3 C           0.0000    0.0000    0.0000 C.3     1  UNL1        0.0904
      4 C           0.0000    0.0000    0.0000 C.3     1  UNL1        0.1502
      5 C           0.0000    0.0000    0.0000 C.1     1  UNL1       -0.0684
      6 C           0.0000    0.0000    0.0000 C.1     1  UNL1       -0.0629
      7 C           0.0000    0.0000    0.0000 C.ar    1  UNL1        0.0441
      8 C           0.0000    0.0000    0.0000 C.ar    1  UNL1        0.0115
      9 C           0.0000    0.0000    0.0000 C.ar    1  UNL1        0.0399
     10 C           0.0000    0.0000    0.0000 C.ar    1  UNL1        0.1658
     11 O           0.0000    0.0000    0.0000 O.3     1  UNL1       -0.4732
     12 C           0.0000    0.0000    0.0000 C.3     1  UNL1        0.2059
     13 C           0.0000    0.0000    0.0000 C.3     1  UNL1        0.0526
     14 C           0.0000    0.0000    0.0000 C.3     1  UNL1        0.0386
     15 C           0.0000    0.0000    0.0000 C.ar    1  UNL1        0.0341
     16 CA          0.0000    0.0000    0.0000 C.ar    1  UNL1        0.1646
     17 C           0.0000    0.0000    0.0000 C.2     1  UNL1        0.4053
     18 O           0.0000    0.0000    0.0000 O.co2   1  UNL1       -0.2388
     19 OXT         0.0000    0.0000    0.0000 O.co2   1  UNL1       -0.2388
     20 N           0.0000    0.0000    0.0000 N.ar    1  UNL1       -0.2177
     21 C           0.0000    0.0000    0.0000 C.ar    1  UNL1        0.1632
     22 N           0.0000    0.0000    0.0000 N.pl3   1  UNL1       -0.2837
     23 C           0.0000    0.0000    0.0000 C.3     1  UNL1        0.0976
     24 C           0.0000    0.0000    0.0000 C.3     1  UNL1        0.0476
     25 C           0.0000    0.0000    0.0000 C.ar    1  UNL1       -0.0227
     26 C           0.0000    0.0000    0.0000 C.ar    1  UNL1       -0.0045
     27 C           0.0000    0.0000    0.0000 C.ar    1  UNL1       -0.0002
     28 C           0.0000    0.0000    0.0000 C.ar    1  UNL1        0.0043
     29 C           0.0000    0.0000    0.0000 C.ar    1  UNL1        0.0528
     30 C           0.0000    0.0000    0.0000 C.2     1  UNL1        0.2704
     31 O           0.0000    0.0000    0.0000 O.2     1  UNL1       -0.2680
     32 N           0.0000    0.0000    0.0000 N.am    1  UNL1       -0.1505
     33 C           0.0000    0.0000    0.0000 C.ar    1  UNL1        0.1861
     34 N           0.0000    0.0000    0.0000 N.ar    1  UNL1       -0.2225
     35 C           0.0000    0.0000    0.0000 C.ar    1  UNL1        0.0893
     36 C           0.0000    0.0000    0.0000 C.ar    1  UNL1        0.0197
     37 C           0.0000    0.0000    0.0000 C.ar    1  UNL1        0.0016
     38 C           0.0000    0.0000    0.0000 C.ar    1  UNL1        0.0006
     39 C           0.0000    0.0000    0.0000 C.ar    1  UNL1        0.0081
     40 C           0.0000    0.0000    0.0000 C.ar    1  UNL1        0.0498
     41 S           0.0000    0.0000    0.0000 S.2     1  UNL1       -0.0497
     42 C           0.0000    0.0000    0.0000 C.ar    1  UNL1       -0.0018
     43 C           0.0000    0.0000    0.0000 C.3     1  UNL1        0.1192
     44 S           0.0000    0.0000    0.0000 S.2     1  UNL1       -0.0557
     45 C           0.0000    0.0000    0.0000 C.ar    1  UNL1        0.1744
     46 F           0.0000    0.0000    0.0000 F       1  UNL1       -0.2009
     47 C           0.0000    0.0000    0.0000 C.ar    1  UNL1        0.0410
@<TRIPOS>BOND
     1     1     2    1
     2     2     3    1
     3     2     4    1
     4     4     5    1
     5     5     6    3
     6     6     7    1
     7     7     8   ar
     8     8     9   ar
     9     9    10   ar
    10    10    11    1
    11    11    12    1
    12    12    13    1
    13    13    14    1
    14    14    15    1
    15    15    16   ar
    16    16    17    1
    17    17    18   ar
    18    17    19   ar
    19    16    20   ar
    20    20    21   ar
    21    21    22    1
    22    22    23    1
    23    23    24    1
    24    24    25    1
    25    25    26   ar
    26    26    27   ar
    27    27    28   ar
    28    28    29   ar
    29    29    30    1
    30    30    31    2
    31    30    32   am
    32    32    33    1
    33    33    34   ar
    34    34    35   ar
    35    35    36   ar
    36    36    37   ar
    37    37    38   ar
    38    38    39   ar
    39    39    40   ar
    40    35    40   ar
    41    40    41   ar
    42    33    41   ar
    43    29    42   ar
    44    25    42   ar
    45    42    43    1
    46    22    43    1
    47    21    44   ar
    48    15    44   ar
    49    10    45   ar
    50    45    46    1
    51    45    47   ar
    52     7    47   ar
