@<TRIPOS>MOLECULE
*****
 17 18 0 0 0
SMALL
GASTEIGER

@<TRIPOS>ATOM
      1 C           0.0000    0.0000    0.0000 C.3     1  UNL1        0.2525
      2 O           0.0000    0.0000    0.0000 O.3     1  UNL1       -0.4706
      3 C           0.0000    0.0000    0.0000 C.ar    1  UNL1        0.1492
      4 C           0.0000    0.0000    0.0000 C.ar    1  UNL1        0.0379
      5 C           0.0000    0.0000    0.0000 C.ar    1  UNL1        0.0063
      6 C           0.0000    0.0000    0.0000 C.ar    1  UNL1        0.0373
      7 C           0.0000    0.0000    0.0000 C.ar    1  UNL1        0.1694
      8 O           0.0000    0.0000    0.0000 O.2     1  UNL1       -0.4310
      9 C           0.0000    0.0000    0.0000 C.ar    1  UNL1        0.2852
     10 N           0.0000    0.0000    0.0000 N.ar    1  UNL1       -0.1995
     11 C           0.0000    0.0000    0.0000 C.ar    1  UNL1        0.1753
     12 C           0.0000    0.0000    0.0000 C.2     1  UNL1        0.3050
     13 N           0.0000    0.0000    0.0000 N.am    1  UNL1       -0.0823
     14 O           0.0000    0.0000    0.0000 O.2     1  UNL1       -0.2649
     15 C           0.0000    0.0000    0.0000 C.ar    1  UNL1        0.0175
     16 C           0.0000    0.0000    0.0000 C.ar    1  UNL1        0.0916
     17 CL          0.0000    0.0000    0.0000 Cl      1  UNL1       -0.0791
@<TRIPOS>BOND
     1     1     2    1
     2     2     3    1
     3     3     4   ar
     4     4     5   ar
     5     5     6   ar
     6     6     7    1
     7     7     8   ar
     8     8     9   ar
     9     9    10   ar
    10    10    11   ar
    11     7    11   ar
    12    11    12    1
    13    12    13   am
    14    12    14    2
    15     6    15   ar
    16    15    16   ar
    17     3    16   ar
    18    16    17    1
