@<TRIPOS>MOLECULE
*****
 26 28 0 0 0
SMALL
GASTEIGER

@<TRIPOS>ATOM
      1 C           0.0000    0.0000    0.0000 C.3     1  UNL1        0.1121
      2 N           0.0000    0.0000    0.0000 N.pl3   1  UNL1       -0.3074
      3 C           0.0000    0.0000    0.0000 C.ar    1  UNL1        0.0487
      4 C           0.0000    0.0000    0.0000 C.ar    1  UNL1        0.0153
      5 C           0.0000    0.0000    0.0000 C.ar    1  UNL1        0.0124
      6 C           0.0000    0.0000    0.0000 C.ar    1  UNL1        0.0791
      7 C           0.0000    0.0000    0.0000 C.1     1  UNL1        0.1013
      8 N           0.0000    0.0000    0.0000 N.1     1  UNL1       -0.1908
      9 C           0.0000    0.0000    0.0000 C.ar    1  UNL1        0.0685
     10 CL          0.0000    0.0000    0.0000 Cl      1  UNL1       -0.0815
     11 C           0.0000    0.0000    0.0000 C.ar    1  UNL1        0.0266
     12 C           0.0000    0.0000    0.0000 C.3     1  UNL1        0.0730
     13 C           0.0000    0.0000    0.0000 C.3     1  UNL1        0.0215
     14 C           0.0000    0.0000    0.0000 C.3     1  UNL1        0.0234
     15 C           0.0000    0.0000    0.0000 C.3     1  UNL1        0.0957
     16 N           0.0000    0.0000    0.0000 N.am    1  UNL1       -0.2034
     17 C           0.0000    0.0000    0.0000 C.2     1  UNL1        0.2647
     18 O           0.0000    0.0000    0.0000 O.2     1  UNL1       -0.2684
     19 C           0.0000    0.0000    0.0000 C.ar    1  UNL1        0.0550
     20 C           0.0000    0.0000    0.0000 C.ar    1  UNL1        0.0046
     21 C           0.0000    0.0000    0.0000 C.ar    1  UNL1        0.0001
     22 C           0.0000    0.0000    0.0000 C.ar    1  UNL1        0.0000
     23 C           0.0000    0.0000    0.0000 C.ar    1  UNL1        0.0001
     24 C           0.0000    0.0000    0.0000 C.ar    1  UNL1        0.0046
     25 C           0.0000    0.0000    0.0000 C.3     1  UNL1        0.0234
     26 C           0.0000    0.0000    0.0000 C.3     1  UNL1        0.0215
@<TRIPOS>BOND
     1     1     2    1
     2     2     3    1
     3     3     4   ar
     4     4     5   ar
     5     5     6   ar
     6     6     7    1
     7     7     8    3
     8     6     9   ar
     9     9    10    1
    10     9    11   ar
    11     3    11   ar
    12     2    12    1
    13    12    13    1
    14    13    14    1
    15    14    15    1
    16    15    16    1
    17    16    17   am
    18    17    18    2
    19    17    19    1
    20    19    20   ar
    21    20    21   ar
    22    21    22   ar
    23    22    23   ar
    24    23    24   ar
    25    19    24   ar
    26    15    25    1
    27    25    26    1
    28    12    26    1
