@<TRIPOS>MOLECULE
*****
 25 27 0 0 0
SMALL
GASTEIGER

@<TRIPOS>ATOM
      1 C           0.0000    0.0000    0.0000 C.3     1  UNL1        0.0251
      2 C           0.0000    0.0000    0.0000 C.3     1  UNL1        0.1123
      3 N           0.0000    0.0000    0.0000 N.pl3   1  UNL1       -0.2375
      4 C           0.0000    0.0000    0.0000 C.ar    1  UNL1        0.0684
      5 C           0.0000    0.0000    0.0000 C.ar    1  UNL1        0.0176
      6 C           0.0000    0.0000    0.0000 C.ar    1  UNL1        0.0210
      7 C           0.0000    0.0000    0.0000 C.ar    1  UNL1        0.1076
      8 N           0.0000    0.0000    0.0000 N.am    1  UNL1       -0.1711
      9 C           0.0000    0.0000    0.0000 C.2     1  UNL1        0.2868
     10 O           0.0000    0.0000    0.0000 O.2     1  UNL1       -0.2663
     11 C           0.0000    0.0000    0.0000 C.ar    1  UNL1        0.1365
     12 C           0.0000    0.0000    0.0000 C.ar    1  UNL1        0.0238
     13 C           0.0000    0.0000    0.0000 C.ar    1  UNL1        0.0033
     14 C           0.0000    0.0000    0.0000 C.ar    1  UNL1        0.0207
     15 C           0.0000    0.0000    0.0000 C.ar    1  UNL1        0.1008
     16 C           0.0000    0.0000    0.0000 C.ar    1  UNL1        0.1220
     17 C           0.0000    0.0000    0.0000 C.ar    1  UNL1        0.0449
     18 C           0.0000    0.0000    0.0000 C.ar    1  UNL1        0.1238
     19 N           0.0000    0.0000    0.0000 N.ar    1  UNL1       -0.1463
     20 N           0.0000    0.0000    0.0000 N.ar    1  UNL1       -0.1464
     21 N           0.0000    0.0000    0.0000 N.ar    1  UNL1       -0.2391
     22 C           0.0000    0.0000    0.0000 C.ar    1  UNL1        0.1552
     23 O           0.0000    0.0000    0.0000 O.3     1  UNL1       -0.4701
     24 C           0.0000    0.0000    0.0000 C.3     1  UNL1        0.2525
     25 C           0.0000    0.0000    0.0000 C.ar    1  UNL1        0.0543
@<TRIPOS>BOND
     1     1     2    1
     2     2     3    1
     3     3     4    1
     4     4     5   ar
     5     5     6   ar
     6     6     7   ar
     7     7     8    1
     8     8     9   am
     9     9    10    2
    10     9    11    1
    11    11    12   ar
    12    12    13   ar
    13    13    14   ar
    14    14    15   ar
    15    15    16    1
    16    16    17   ar
    17    17    18   ar
    18    18    19   ar
    19    19    20   ar
    20    16    20   ar
    21    15    21   ar
    22    11    21   ar
    23     7    22   ar
    24    22    23    1
    25    23    24    1
    26    22    25   ar
    27     4    25   ar
