@<TRIPOS>MOLECULE
*****
 28 31 0 0 0
SMALL
GASTEIGER

@<TRIPOS>ATOM
      1 N           0.0000    0.0000    0.0000 N.3     1  UNL1        0.0074
      2 N           0.0000    0.0000    0.0000 N.am    1  UNL1       -0.0886
      3 C           0.0000    0.0000    0.0000 C.2     1  UNL1        0.2822
      4 O           0.0000    0.0000    0.0000 O.2     1  UNL1       -0.2669
      5 C           0.0000    0.0000    0.0000 C.ar    1  UNL1        0.0567
      6 C           0.0000    0.0000    0.0000 C.ar    1  UNL1        0.0077
      7 C           0.0000    0.0000    0.0000 C.ar    1  UNL1        0.0376
      8 C           0.0000    0.0000    0.0000 C.ar    1  UNL1        0.1453
      9 O           0.0000    0.0000    0.0000 O.3     1  UNL1       -0.4530
     10 C           0.0000    0.0000    0.0000 C.ar    1  UNL1        0.1515
     11 C           0.0000    0.0000    0.0000 C.ar    1  UNL1        0.0639
     12 C           0.0000    0.0000    0.0000 C.ar    1  UNL1        0.0092
     13 C           0.0000    0.0000    0.0000 C.ar    1  UNL1        0.0039
     14 C           0.0000    0.0000    0.0000 C.ar    1  UNL1        0.0420
     15 C           0.0000    0.0000    0.0000 C.ar    1  UNL1        0.1957
     16 O           0.0000    0.0000    0.0000 O.3     1  UNL1       -0.2866
     17 C           0.0000    0.0000    0.0000 C.ar    1  UNL1        0.0420
     18 C           0.0000    0.0000    0.0000 C.ar    1  UNL1        0.0039
     19 S           0.0000    0.0000    0.0000 S.2     1  UNL1       -0.0837
     20 C           0.0000    0.0000    0.0000 C.ar    1  UNL1        0.0357
     21 C           0.0000    0.0000    0.0000 C.ar    1  UNL1        0.0486
     22 C           0.0000    0.0000    0.0000 C.ar    1  UNL1        0.1962
     23 O           0.0000    0.0000    0.0000 O.3     1  UNL1       -0.2866
     24 C           0.0000    0.0000    0.0000 C.ar    1  UNL1        0.0422
     25 C           0.0000    0.0000    0.0000 C.ar    1  UNL1        0.0068
     26 C           0.0000    0.0000    0.0000 C.ar    1  UNL1        0.0413
     27 C           0.0000    0.0000    0.0000 C.ar    1  UNL1        0.0376
     28 C           0.0000    0.0000    0.0000 C.ar    1  UNL1        0.0077
@<TRIPOS>BOND
     1     1     2    1
     2     2     3   am
     3     3     4    2
     4     3     5    1
     5     5     6   ar
     6     6     7   ar
     7     7     8   ar
     8     8     9    1
     9     9    10    1
    10    10    11   ar
    11    11    12    1
    12    12    13   ar
    13    13    14   ar
    14    14    15   ar
    15    15    16    1
    16    15    17   ar
    17    17    18   ar
    18    12    18   ar
    19    11    19   ar
    20    19    20   ar
    21    20    21   ar
    22    21    22   ar
    23    22    23    1
    24    22    24   ar
    25    24    25   ar
    26    25    26   ar
    27    10    26   ar
    28    20    26   ar
    29     8    27   ar
    30    27    28   ar
    31     5    28   ar
