@<TRIPOS>MOLECULE
*****
 31 33 0 0 0
SMALL
GASTEIGER

@<TRIPOS>ATOM
      1 C           0.0000    0.0000    0.0000 C.3     1  UNL1        0.2559
      2 O           0.0000    0.0000    0.0000 O.3     1  UNL1       -0.4416
      3 C           0.0000    0.0000    0.0000 C.2     1  UNL1        0.3370
      4 O           0.0000    0.0000    0.0000 O.2     1  UNL1       -0.2453
      5 C           0.0000    0.0000    0.0000 C.2     1  UNL1        0.0493
      6 C           0.0000    0.0000    0.0000 C.2     1  UNL1       -0.0233
      7 C           0.0000    0.0000    0.0000 C.3     1  UNL1        0.0399
      8 C           0.0000    0.0000    0.0000 C.3     1  UNL1        0.1270
      9 C           0.0000    0.0000    0.0000 C.3     1  UNL1        0.0146
     10 C           0.0000    0.0000    0.0000 C.3     1  UNL1        0.0080
     11 C           0.0000    0.0000    0.0000 C.3     1  UNL1        0.0780
     12 C           0.0000    0.0000    0.0000 C.3     1  UNL1        0.1493
     13 O           0.0000    0.0000    0.0000 O.3     1  UNL1       -0.4550
     14 C           0.0000    0.0000    0.0000 C.2     1  UNL1        0.3173
     15 C           0.0000    0.0000    0.0000 C.3     1  UNL1        0.1212
     16 O           0.0000    0.0000    0.0000 O.2     1  UNL1       -0.2501
     17 C           0.0000    0.0000    0.0000 C.3     1  UNL1        0.0457
     18 C           0.0000    0.0000    0.0000 C.3     1  UNL1        0.0362
     19 C           0.0000    0.0000    0.0000 C.3     1  UNL1        0.1576
     20 C           0.0000    0.0000    0.0000 C.3     1  UNL1        0.0485
     21 C           0.0000    0.0000    0.0000 C.2     1  UNL1        0.0130
     22 C           0.0000    0.0000    0.0000 C.2     1  UNL1       -0.0013
     23 C           0.0000    0.0000    0.0000 C.2     1  UNL1        0.0021
     24 C           0.0000    0.0000    0.0000 C.2     1  UNL1        0.0578
     25 C           0.0000    0.0000    0.0000 C.3     1  UNL1        0.0380
     26 C           0.0000    0.0000    0.0000 C.2     1  UNL1        0.3839
     27 O           0.0000    0.0000    0.0000 O.co2   1  UNL1       -0.2409
     28 O           0.0000    0.0000    0.0000 O.co2   1  UNL1       -0.2409
     29 O           0.0000    0.0000    0.0000 O.3     1  UNL1       -0.4514
     30 C           0.0000    0.0000    0.0000 C.2     1  UNL1        0.3196
     31 O           0.0000    0.0000    0.0000 O.2     1  UNL1       -0.2500
@<TRIPOS>BOND
     1     1     2    1
     2     2     3    1
     3     3     4    2
     4     3     5    1
     5     5     6    2
     6     6     7    1
     7     7     8    1
     8     8     9    1
     9     9    10    1
    10    10    11    1
    11    11    12    1
    12     8    12    1
    13    12    13    1
    14    13    14    1
    15    14    15    1
    16    14    16    2
    17    12    17    1
    18    17    18    1
    19     5    18    1
    20    11    19    1
    21    19    20    1
    22    19    21    1
    23    21    22    2
    24    22    23    1
    25    23    24    2
    26    24    25    1
    27    24    26    1
    28    26    27   ar
    29    26    28   ar
    30    19    29    1
    31    29    30    1
    32     8    30    1
    33    30    31    2
