@<TRIPOS>MOLECULE
*****
 37 40 0 0 0
SMALL
GASTEIGER

@<TRIPOS>ATOM
      1 C           0.0000    0.0000    0.0000 C.2     1  UNL1        0.0049
      2 C           0.0000    0.0000    0.0000 C.2     1  UNL1        0.0598
      3 C           0.0000    0.0000    0.0000 C.2     1  UNL1        0.2692
      4 O           0.0000    0.0000    0.0000 O.2     1  UNL1       -0.2680
      5 N           0.0000    0.0000    0.0000 N.am    1  UNL1       -0.1741
      6 C           0.0000    0.0000    0.0000 C.ar    1  UNL1        0.0884
      7 C           0.0000    0.0000    0.0000 C.ar    1  UNL1        0.0375
      8 C           0.0000    0.0000    0.0000 C.ar    1  UNL1        0.1088
      9 N           0.0000    0.0000    0.0000 N.pl3   1  UNL1       -0.1745
     10 C           0.0000    0.0000    0.0000 C.ar    1  UNL1        0.2409
     11 N           0.0000    0.0000    0.0000 N.ar    1  UNL1       -0.2106
     12 C           0.0000    0.0000    0.0000 C.ar    1  UNL1        0.1034
     13 C           0.0000    0.0000    0.0000 C.ar    1  UNL1        0.0400
     14 C           0.0000    0.0000    0.0000 C.ar    1  UNL1        0.0873
     15 C           0.0000    0.0000    0.0000 C.ar    1  UNL1        0.0364
     16 C           0.0000    0.0000    0.0000 C.ar    1  UNL1        0.0774
     17 N           0.0000    0.0000    0.0000 N.ar    1  UNL1       -0.3240
     18 C           0.0000    0.0000    0.0000 C.3     1  UNL1        0.1305
     19 C           0.0000    0.0000    0.0000 C.ar    1  UNL1        0.0600
     20 C           0.0000    0.0000    0.0000 C.ar    1  UNL1        0.0172
     21 C           0.0000    0.0000    0.0000 C.ar    1  UNL1        0.0015
     22 C           0.0000    0.0000    0.0000 C.ar    1  UNL1        0.0001
     23 C           0.0000    0.0000    0.0000 C.ar    1  UNL1        0.0015
     24 C           0.0000    0.0000    0.0000 C.ar    1  UNL1        0.0187
     25 N           0.0000    0.0000    0.0000 N.ar    1  UNL1       -0.2121
     26 C           0.0000    0.0000    0.0000 C.ar    1  UNL1        0.1552
     27 O           0.0000    0.0000    0.0000 O.3     1  UNL1       -0.4701
     28 C           0.0000    0.0000    0.0000 C.3     1  UNL1        0.2525
     29 C           0.0000    0.0000    0.0000 C.ar    1  UNL1        0.0541
     30 C           0.0000    0.0000    0.0000 C.ar    1  UNL1        0.0666
     31 N           0.0000    0.0000    0.0000 N.pl3   1  UNL1       -0.3033
     32 C           0.0000    0.0000    0.0000 C.3     1  UNL1        0.1123
     33 C           0.0000    0.0000    0.0000 C.3     1  UNL1        0.1082
     34 C           0.0000    0.0000    0.0000 C.3     1  UNL1        0.0938
     35 N           0.0000    0.0000    0.0000 N.3     1  UNL1       -0.2688
     36 C           0.0000    0.0000    0.0000 C.3     1  UNL1        0.0897
     37 C           0.0000    0.0000    0.0000 C.3     1  UNL1        0.0897
@<TRIPOS>BOND
     1     1     2    2
     2     2     3    1
     3     3     4    2
     4     3     5   am
     5     5     6    1
     6     6     7   ar
     7     7     8   ar
     8     8     9    1
     9     9    10    1
    10    10    11   ar
    11    11    12   ar
    12    12    13   ar
    13    13    14   ar
    14    14    15    1
    15    15    16   ar
    16    16    17   ar
    17    17    18    1
    18    17    19   ar
    19    19    20   ar
    20    20    21   ar
    21    21    22   ar
    22    22    23   ar
    23    23    24   ar
    24    15    24   ar
    25    19    24   ar
    26    14    25   ar
    27    10    25   ar
    28     8    26   ar
    29    26    27    1
    30    27    28    1
    31    26    29   ar
    32    29    30   ar
    33     6    30   ar
    34    30    31    1
    35    31    32    1
    36    31    33    1
    37    33    34    1
    38    34    35    1
    39    35    36    1
    40    35    37    1
