@<TRIPOS>MOLECULE
*****
 29 33 0 0 0
SMALL
GASTEIGER

@<TRIPOS>ATOM
      1 N           0.0000    0.0000    0.0000 N.pl3   1  UNL1       -0.1070
      2 C           0.0000    0.0000    0.0000 C.ar    1  UNL1        0.1758
      3 N           0.0000    0.0000    0.0000 N.ar    1  UNL1       -0.2055
      4 C           0.0000    0.0000    0.0000 C.ar    1  UNL1        0.2015
      5 N           0.0000    0.0000    0.0000 N.ar    1  UNL1       -0.2050
      6 C           0.0000    0.0000    0.0000 C.ar    1  UNL1        0.1654
      7 C           0.0000    0.0000    0.0000 C.ar    1  UNL1        0.0896
      8 C           0.0000    0.0000    0.0000 C.ar    1  UNL1        0.1067
      9 C           0.0000    0.0000    0.0000 C.ar    1  UNL1        0.0197
     10 C           0.0000    0.0000    0.0000 C.ar    1  UNL1        0.0047
     11 C           0.0000    0.0000    0.0000 C.ar    1  UNL1        0.0375
     12 C           0.0000    0.0000    0.0000 C.ar    1  UNL1        0.1453
     13 O           0.0000    0.0000    0.0000 O.3     1  UNL1       -0.4535
     14 C           0.0000    0.0000    0.0000 C.ar    1  UNL1        0.1453
     15 C           0.0000    0.0000    0.0000 C.ar    1  UNL1        0.0375
     16 C           0.0000    0.0000    0.0000 C.ar    1  UNL1        0.0031
     17 C           0.0000    0.0000    0.0000 C.ar    1  UNL1        0.0002
     18 C           0.0000    0.0000    0.0000 C.ar    1  UNL1        0.0031
     19 C           0.0000    0.0000    0.0000 C.ar    1  UNL1        0.0375
     20 C           0.0000    0.0000    0.0000 C.ar    1  UNL1        0.0375
     21 C           0.0000    0.0000    0.0000 C.ar    1  UNL1        0.0047
     22 N           0.0000    0.0000    0.0000 N.ar    1  UNL1       -0.1679
     23 N           0.0000    0.0000    0.0000 N.ar    1  UNL1       -0.2345
     24 C           0.0000    0.0000    0.0000 C.3     1  UNL1        0.1241
     25 C           0.0000    0.0000    0.0000 C.3     1  UNL1        0.0274
     26 C           0.0000    0.0000    0.0000 C.3     1  UNL1        0.0208
     27 C           0.0000    0.0000    0.0000 C.3     1  UNL1        0.0888
     28 N           0.0000    0.0000    0.0000 N.3     1  UNL1       -0.2160
     29 C           0.0000    0.0000    0.0000 C.3     1  UNL1        0.1130
@<TRIPOS>BOND
     1     1     2    1
     2     2     3   ar
     3     3     4   ar
     4     4     5   ar
     5     5     6   ar
     6     6     7   ar
     7     2     7   ar
     8     7     8   ar
     9     8     9    1
    10     9    10   ar
    11    10    11   ar
    12    11    12   ar
    13    12    13    1
    14    13    14    1
    15    14    15   ar
    16    15    16   ar
    17    16    17   ar
    18    17    18   ar
    19    18    19   ar
    20    14    19   ar
    21    12    20   ar
    22    20    21   ar
    23     9    21   ar
    24     8    22   ar
    25    22    23   ar
    26     6    23   ar
    27    23    24    1
    28    24    25    1
    29    25    26    1
    30    26    27    1
    31    27    28    1
    32    28    29    1
    33    24    29    1
