@<TRIPOS>MOLECULE
*****
 12 13 0 0 0
SMALL
GASTEIGER

@<TRIPOS>ATOM
      1 O           0.0000    0.0000    0.0000 O.2     1  UNL1       -0.2241
      2 C           0.0000    0.0000    0.0000 C.2     1  UNL1        0.4260
      3 N           0.0000    0.0000    0.0000 N.am    1  UNL1       -0.1634
      4 C           0.0000    0.0000    0.0000 C.3     1  UNL1        0.1480
      5 C           0.0000    0.0000    0.0000 C.ar    1  UNL1        0.0345
      6 C           0.0000    0.0000    0.0000 C.ar    1  UNL1        0.0038
      7 C           0.0000    0.0000    0.0000 C.ar    1  UNL1        0.0420
      8 C           0.0000    0.0000    0.0000 C.ar    1  UNL1        0.1988
      9 O           0.0000    0.0000    0.0000 O.3     1  UNL1       -0.2865
     10 C           0.0000    0.0000    0.0000 C.ar    1  UNL1        0.0794
     11 C           0.0000    0.0000    0.0000 C.ar    1  UNL1        0.1509
     12 O           0.0000    0.0000    0.0000 O.3     1  UNL1       -0.4093
@<TRIPOS>BOND
     1     1     2    2
     2     2     3   am
     3     3     4    1
     4     4     5    1
     5     5     6   ar
     6     6     7   ar
     7     7     8   ar
     8     8     9    1
     9     8    10   ar
    10    10    11   ar
    11     5    11   ar
    12    11    12    1
    13     2    12    1
