@<TRIPOS>MOLECULE
*****
 28 31 0 0 0
SMALL
GASTEIGER

@<TRIPOS>ATOM
      1 C           0.0000    0.0000    0.0000 C.3     1  UNL1        0.1385
      2 N           0.0000    0.0000    0.0000 N.am    1  UNL1       -0.2035
      3 C           0.0000    0.0000    0.0000 C.2     1  UNL1        0.2439
      4 O           0.0000    0.0000    0.0000 O.2     1  UNL1       -0.2733
      5 C           0.0000    0.0000    0.0000 C.3     1  UNL1        0.1188
      6 C           0.0000    0.0000    0.0000 C.3     1  UNL1        0.1707
      7 N           0.0000    0.0000    0.0000 N.2     1  UNL1       -0.2641
      8 C           0.0000    0.0000    0.0000 C.2     1  UNL1        0.0780
      9 C           0.0000    0.0000    0.0000 C.ar    1  UNL1        0.0174
     10 C           0.0000    0.0000    0.0000 C.ar    1  UNL1        0.0023
     11 C           0.0000    0.0000    0.0000 C.ar    1  UNL1        0.0114
     12 C           0.0000    0.0000    0.0000 C.ar    1  UNL1        0.0577
     13 CL          0.0000    0.0000    0.0000 Cl      1  UNL1       -0.0822
     14 C           0.0000    0.0000    0.0000 C.ar    1  UNL1        0.0114
     15 C           0.0000    0.0000    0.0000 C.ar    1  UNL1        0.0023
     16 C           0.0000    0.0000    0.0000 C.ar    1  UNL1        0.0359
     17 C           0.0000    0.0000    0.0000 C.ar    1  UNL1        0.0970
     18 S           0.0000    0.0000    0.0000 S.2     1  UNL1       -0.0740
     19 C           0.0000    0.0000    0.0000 C.ar    1  UNL1        0.0051
     20 C           0.0000    0.0000    0.0000 C.3     1  UNL1        0.0379
     21 C           0.0000    0.0000    0.0000 C.ar    1  UNL1       -0.0165
     22 C           0.0000    0.0000    0.0000 C.3     1  UNL1        0.0313
     23 N           0.0000    0.0000    0.0000 N.ar    1  UNL1       -0.2736
     24 C           0.0000    0.0000    0.0000 C.ar    1  UNL1        0.1477
     25 C           0.0000    0.0000    0.0000 C.3     1  UNL1        0.0742
     26 N           0.0000    0.0000    0.0000 N.ar    1  UNL1       -0.1332
     27 N           0.0000    0.0000    0.0000 N.ar    1  UNL1       -0.1313
     28 C           0.0000    0.0000    0.0000 C.ar    1  UNL1        0.1701
@<TRIPOS>BOND
     1     1     2    1
     2     2     3   am
     3     3     4    2
     4     3     5    1
     5     5     6    1
     6     6     7    1
     7     7     8    2
     8     8     9    1
     9     9    10   ar
    10    10    11   ar
    11    11    12   ar
    12    12    13    1
    13    12    14   ar
    14    14    15   ar
    15     9    15   ar
    16     8    16    1
    17    16    17   ar
    18    17    18   ar
    19    18    19   ar
    20    19    20    1
    21    19    21   ar
    22    16    21   ar
    23    21    22    1
    24    17    23    1
    25    23    24   ar
    26    24    25    1
    27    24    26   ar
    28    26    27   ar
    29    27    28   ar
    30    23    28   ar
    31     6    28    1
