@<TRIPOS>MOLECULE
*****
 23 25 0 0 0
SMALL
GASTEIGER

@<TRIPOS>ATOM
      1 C           0.0000    0.0000    0.0000 C.3     1  UNL1        0.2526
      2 O           0.0000    0.0000    0.0000 O.3     1  UNL1       -0.4683
      3 C           0.0000    0.0000    0.0000 C.ar    1  UNL1        0.1739
      4 C           0.0000    0.0000    0.0000 C.ar    1  UNL1        0.0593
      5 C           0.0000    0.0000    0.0000 C.ar    1  UNL1        0.0902
      6 N           0.0000    0.0000    0.0000 N.ar    1  UNL1       -0.2134
      7 C           0.0000    0.0000    0.0000 C.ar    1  UNL1        0.2215
      8 N           0.0000    0.0000    0.0000 N.pl3   1  UNL1       -0.2747
      9 C           0.0000    0.0000    0.0000 C.3     1  UNL1        0.1151
     10 C           0.0000    0.0000    0.0000 C.3     1  UNL1        0.1154
     11 N           0.0000    0.0000    0.0000 N.am    1  UNL1       -0.2688
     12 C           0.0000    0.0000    0.0000 C.2     1  UNL1        0.3030
     13 O           0.0000    0.0000    0.0000 O.2     1  UNL1       -0.2649
     14 C           0.0000    0.0000    0.0000 C.3     1  UNL1        0.1154
     15 C           0.0000    0.0000    0.0000 C.3     1  UNL1        0.1151
     16 N           0.0000    0.0000    0.0000 N.ar    1  UNL1       -0.1954
     17 C           0.0000    0.0000    0.0000 C.ar    1  UNL1        0.1740
     18 N           0.0000    0.0000    0.0000 N.pl3   1  UNL1       -0.1071
     19 C           0.0000    0.0000    0.0000 C.ar    1  UNL1        0.0558
     20 C           0.0000    0.0000    0.0000 C.ar    1  UNL1        0.0444
     21 C           0.0000    0.0000    0.0000 C.ar    1  UNL1        0.1726
     22 O           0.0000    0.0000    0.0000 O.3     1  UNL1       -0.4684
     23 C           0.0000    0.0000    0.0000 C.3     1  UNL1        0.2526
@<TRIPOS>BOND
     1     1     2    1
     2     2     3    1
     3     3     4   ar
     4     4     5   ar
     5     5     6   ar
     6     6     7   ar
     7     7     8    1
     8     8     9    1
     9     9    10    1
    10    10    11    1
    11    11    12   am
    12    12    13    2
    13    11    14    1
    14    14    15    1
    15     8    15    1
    16     7    16   ar
    17    16    17   ar
    18    17    18    1
    19    17    19   ar
    20     5    19   ar
    21    19    20   ar
    22    20    21   ar
    23     3    21   ar
    24    21    22    1
    25    22    23    1
