@<TRIPOS>MOLECULE
*****
 30 33 0 0 0
SMALL
GASTEIGER

@<TRIPOS>ATOM
      1 O           0.0000    0.0000    0.0000 O.2     1  UNL1       -0.2883
      2 C           0.0000    0.0000    0.0000 C.2     1  UNL1        0.2071
      3 C           0.0000    0.0000    0.0000 C.3     1  UNL1        0.0683
      4 C           0.0000    0.0000    0.0000 C.3     1  UNL1        0.0292
      5 C           0.0000    0.0000    0.0000 C.3     1  UNL1        0.0912
      6 N           0.0000    0.0000    0.0000 N.pl3   1  UNL1       -0.3075
      7 C           0.0000    0.0000    0.0000 C.ar    1  UNL1        0.0479
      8 C           0.0000    0.0000    0.0000 C.ar    1  UNL1        0.0159
      9 C           0.0000    0.0000    0.0000 C.ar    1  UNL1        0.0179
     10 C           0.0000    0.0000    0.0000 C.ar    1  UNL1        0.0738
     11 N           0.0000    0.0000    0.0000 N.am    1  UNL1       -0.1754
     12 C           0.0000    0.0000    0.0000 C.2     1  UNL1        0.2720
     13 O           0.0000    0.0000    0.0000 O.2     1  UNL1       -0.2679
     14 C           0.0000    0.0000    0.0000 C.ar    1  UNL1        0.0938
     15 C           0.0000    0.0000    0.0000 C.ar    1  UNL1        0.1098
     16 N           0.0000    0.0000    0.0000 N.ar    1  UNL1       -0.1922
     17 C           0.0000    0.0000    0.0000 C.ar    1  UNL1        0.3246
     18 O           0.0000    0.0000    0.0000 O.3     1  UNL1       -0.4223
     19 C           0.0000    0.0000    0.0000 C.ar    1  UNL1        0.1487
     20 C           0.0000    0.0000    0.0000 C.ar    1  UNL1        0.0376
     21 C           0.0000    0.0000    0.0000 C.ar    1  UNL1        0.0031
     22 C           0.0000    0.0000    0.0000 C.ar    1  UNL1        0.0002
     23 C           0.0000    0.0000    0.0000 C.ar    1  UNL1        0.0031
     24 C           0.0000    0.0000    0.0000 C.ar    1  UNL1        0.0376
     25 N           0.0000    0.0000    0.0000 N.ar    1  UNL1       -0.1922
     26 C           0.0000    0.0000    0.0000 C.ar    1  UNL1        0.1098
     27 C           0.0000    0.0000    0.0000 C.ar    1  UNL1        0.0179
     28 C           0.0000    0.0000    0.0000 C.ar    1  UNL1        0.0159
     29 C           0.0000    0.0000    0.0000 C.3     1  UNL1        0.0912
     30 C           0.0000    0.0000    0.0000 C.3     1  UNL1        0.0292
@<TRIPOS>BOND
     1     1     2    2
     2     2     3    1
     3     3     4    1
     4     4     5    1
     5     5     6    1
     6     6     7    1
     7     7     8   ar
     8     8     9   ar
     9     9    10   ar
    10    10    11    1
    11    11    12   am
    12    12    13    2
    13    12    14    1
    14    14    15   ar
    15    15    16   ar
    16    16    17   ar
    17    17    18    1
    18    18    19    1
    19    19    20   ar
    20    20    21   ar
    21    21    22   ar
    22    22    23   ar
    23    23    24   ar
    24    19    24   ar
    25    17    25   ar
    26    25    26   ar
    27    14    26   ar
    28    10    27   ar
    29    27    28   ar
    30     7    28   ar
    31     6    29    1
    32    29    30    1
    33     3    30    1
