@<TRIPOS>MOLECULE
*****
 53 57 0 0 0
SMALL
GASTEIGER

@<TRIPOS>ATOM
      1 C           0.0000    0.0000    0.0000 C.3     1  UNL1        0.0948
      2 C           0.0000    0.0000    0.0000 C.2     1  UNL1        0.2262
      3 O           0.0000    0.0000    0.0000 O.2     1  UNL1       -0.2749
      4 N           0.0000    0.0000    0.0000 N.am    1  UNL1       -0.2772
      5 C           0.0000    0.0000    0.0000 C.3     1  UNL1        0.0952
      6 C           0.0000    0.0000    0.0000 C.3     1  UNL1        0.0413
      7 C           0.0000    0.0000    0.0000 C.3     1  UNL1        0.0776
      8 C           0.0000    0.0000    0.0000 C.3     1  UNL1        0.0221
      9 C           0.0000    0.0000    0.0000 C.3     1  UNL1        0.0310
     10 C           0.0000    0.0000    0.0000 C.3     1  UNL1        0.1535
     11 C           0.0000    0.0000    0.0000 C.2     1  UNL1        0.2598
     12 O           0.0000    0.0000    0.0000 O.2     1  UNL1       -0.2715
     13 N           0.0000    0.0000    0.0000 N.am    1  UNL1       -0.1964
     14 C           0.0000    0.0000    0.0000 C.3     1  UNL1        0.1733
     15 C           0.0000    0.0000    0.0000 C.3     1  UNL1        0.0408
     16 C           0.0000    0.0000    0.0000 C.3     1  UNL1        0.0908
     17 C           0.0000    0.0000    0.0000 C.2     1  UNL1        0.2608
     18 N           0.0000    0.0000    0.0000 N.am    1  UNL1       -0.0878
     19 O           0.0000    0.0000    0.0000 O.2     1  UNL1       -0.2717
     20 C           0.0000    0.0000    0.0000 C.2     1  UNL1        0.2615
     21 O           0.0000    0.0000    0.0000 O.2     1  UNL1       -0.2715
     22 N           0.0000    0.0000    0.0000 N.am    1  UNL1       -0.1991
     23 C           0.0000    0.0000    0.0000 C.3     1  UNL1        0.1415
     24 C           0.0000    0.0000    0.0000 C.ar    1  UNL1       -0.0006
     25 C           0.0000    0.0000    0.0000 C.ar    1  UNL1       -0.0026
     26 C           0.0000    0.0000    0.0000 C.ar    1  UNL1       -0.0003
     27 C           0.0000    0.0000    0.0000 C.ar    1  UNL1       -0.0000
     28 C           0.0000    0.0000    0.0000 C.ar    1  UNL1       -0.0003
     29 C           0.0000    0.0000    0.0000 C.ar    1  UNL1       -0.0026
     30 N           0.0000    0.0000    0.0000 N.am    1  UNL1       -0.2731
     31 C           0.0000    0.0000    0.0000 C.2     1  UNL1        0.2475
     32 O           0.0000    0.0000    0.0000 O.2     1  UNL1       -0.2729
     33 C           0.0000    0.0000    0.0000 C.3     1  UNL1        0.1912
     34 N           0.0000    0.0000    0.0000 N.am    1  UNL1       -0.1910
     35 C           0.0000    0.0000    0.0000 C.2     1  UNL1        0.2830
     36 O           0.0000    0.0000    0.0000 O.2     1  UNL1       -0.2667
     37 C           0.0000    0.0000    0.0000 C.ar    1  UNL1        0.1361
     38 C           0.0000    0.0000    0.0000 C.ar    1  UNL1        0.0253
     39 C           0.0000    0.0000    0.0000 C.ar    1  UNL1        0.0192
     40 C           0.0000    0.0000    0.0000 C.ar    1  UNL1        0.0029
     41 C           0.0000    0.0000    0.0000 C.ar    1  UNL1        0.0445
     42 C           0.0000    0.0000    0.0000 C.3     1  UNL1        0.3249
     43 F           0.0000    0.0000    0.0000 F       1  UNL1       -0.1920
     44 F           0.0000    0.0000    0.0000 F       1  UNL1       -0.1920
     45 P           0.0000    0.0000    0.0000 P.3     1  UNL1        0.1831
     46 O           0.0000    0.0000    0.0000 O.2     1  UNL1       -0.4543
     47 O           0.0000    0.0000    0.0000 O.3     1  UNL1       -0.3533
     48 O           0.0000    0.0000    0.0000 O.3     1  UNL1       -0.3533
     49 C           0.0000    0.0000    0.0000 C.ar    1  UNL1        0.0029
     50 C           0.0000    0.0000    0.0000 C.ar    1  UNL1        0.0190
     51 C           0.0000    0.0000    0.0000 C.ar    1  UNL1        0.0815
     52 N           0.0000    0.0000    0.0000 N.ar    1  UNL1       -0.2407
     53 C           0.0000    0.0000    0.0000 C.3     1  UNL1        0.1243
@<TRIPOS>BOND
     1     1     2    1
     2     2     3    2
     3     2     4   am
     4     4     5    1
     5     5     6    1
     6     6     7    1
     7     7     8    1
     8     8     9    1
     9     9    10    1
    10    10    11    1
    11    11    12    2
    12    11    13   am
    13    13    14    1
    14    14    15    1
    15    15    16    1
    16    16    17    1
    17    17    18   am
    18    17    19    2
    19    14    20    1
    20    20    21    2
    21    20    22   am
    22    22    23    1
    23    23    24    1
    24    24    25   ar
    25    25    26   ar
    26    26    27   ar
    27    27    28   ar
    28    28    29   ar
    29    24    29   ar
    30    10    30    1
    31     7    30    1
    32    30    31   am
    33    31    32    2
    34    31    33    1
    35    33    34    1
    36    34    35   am
    37    35    36    2
    38    35    37    1
    39    37    38   ar
    40    38    39   ar
    41    39    40   ar
    42    40    41   ar
    43    41    42    1
    44    42    43    1
    45    42    44    1
    46    42    45    1
    47    45    46    2
    48    45    47    1
    49    45    48    1
    50    41    49   ar
    51    49    50   ar
    52    50    51   ar
    53    39    51   ar
    54    51    52   ar
    55    37    52   ar
    56    33    53    1
    57     4    53    1
