@<TRIPOS>MOLECULE
*****
 65 71 0 0 0
SMALL
GASTEIGER

@<TRIPOS>ATOM
      1 C           0.0000    0.0000    0.0000 C.3     1  UNL1        0.0003
      2 C           0.0000    0.0000    0.0000 C.3     1  UNL1        0.0041
      3 C           0.0000    0.0000    0.0000 C.3     1  UNL1        0.0003
      4 C           0.0000    0.0000    0.0000 C.3     1  UNL1        0.0050
      5 C           0.0000    0.0000    0.0000 C.3     1  UNL1        0.0258
      6 C           0.0000    0.0000    0.0000 C.2     1  UNL1       -0.0288
      7 C           0.0000    0.0000    0.0000 C.ar    1  UNL1       -0.0045
      8 C           0.0000    0.0000    0.0000 C.ar    1  UNL1        0.0005
      9 C           0.0000    0.0000    0.0000 C.ar    1  UNL1        0.0114
     10 C           0.0000    0.0000    0.0000 C.ar    1  UNL1        0.0577
     11 CL          0.0000    0.0000    0.0000 Cl      1  UNL1       -0.0822
     12 C           0.0000    0.0000    0.0000 C.ar    1  UNL1        0.0114
     13 C           0.0000    0.0000    0.0000 C.ar    1  UNL1        0.0005
     14 C           0.0000    0.0000    0.0000 C.2     1  UNL1       -0.0323
     15 C           0.0000    0.0000    0.0000 C.3     1  UNL1        0.0946
     16 N           0.0000    0.0000    0.0000 N.3     1  UNL1       -0.2663
     17 C           0.0000    0.0000    0.0000 C.3     1  UNL1        0.0941
     18 C           0.0000    0.0000    0.0000 C.3     1  UNL1        0.1081
     19 N           0.0000    0.0000    0.0000 N.pl3   1  UNL1       -0.3046
     20 C           0.0000    0.0000    0.0000 C.ar    1  UNL1        0.0479
     21 C           0.0000    0.0000    0.0000 C.ar    1  UNL1        0.0147
     22 C           0.0000    0.0000    0.0000 C.ar    1  UNL1        0.0059
     23 C           0.0000    0.0000    0.0000 C.ar    1  UNL1        0.0567
     24 C           0.0000    0.0000    0.0000 C.2     1  UNL1        0.2857
     25 O           0.0000    0.0000    0.0000 O.2     1  UNL1       -0.2667
     26 N           0.0000    0.0000    0.0000 N.am    1  UNL1       -0.0549
     27 S           0.0000    0.0000    0.0000 S.O2    1  UNL1        0.0957
     28 O           0.0000    0.0000    0.0000 O.2     1  UNL1       -0.1482
     29 O           0.0000    0.0000    0.0000 O.2     1  UNL1       -0.1482
     30 C           0.0000    0.0000    0.0000 C.ar    1  UNL1        0.1285
     31 C           0.0000    0.0000    0.0000 C.ar    1  UNL1        0.0217
     32 C           0.0000    0.0000    0.0000 C.ar    1  UNL1        0.0188
     33 C           0.0000    0.0000    0.0000 C.ar    1  UNL1        0.0827
     34 N           0.0000    0.0000    0.0000 N.pl3   1  UNL1       -0.2371
     35 C           0.0000    0.0000    0.0000 C.3     1  UNL1        0.1050
     36 C           0.0000    0.0000    0.0000 C.3     1  UNL1        0.0398
     37 C           0.0000    0.0000    0.0000 C.3     1  UNL1        0.0740
     38 N           0.0000    0.0000    0.0000 N.3     1  UNL1       -0.2702
     39 C           0.0000    0.0000    0.0000 C.3     1  UNL1        0.0912
     40 C           0.0000    0.0000    0.0000 C.3     1  UNL1        0.1060
     41 N           0.0000    0.0000    0.0000 N.3     1  UNL1       -0.2151
     42 C           0.0000    0.0000    0.0000 C.3     1  UNL1        0.1060
     43 C           0.0000    0.0000    0.0000 C.3     1  UNL1        0.0912
     44 C           0.0000    0.0000    0.0000 C.3     1  UNL1        0.0837
     45 S           0.0000    0.0000    0.0000 S.3     1  UNL1       -0.1119
     46 C           0.0000    0.0000    0.0000 C.ar    1  UNL1        0.0253
     47 C           0.0000    0.0000    0.0000 C.ar    1  UNL1        0.0061
     48 C           0.0000    0.0000    0.0000 C.ar    1  UNL1        0.0005
     49 C           0.0000    0.0000    0.0000 C.ar    1  UNL1        0.0000
     50 C           0.0000    0.0000    0.0000 C.ar    1  UNL1        0.0005
     51 C           0.0000    0.0000    0.0000 C.ar    1  UNL1        0.0061
     52 C           0.0000    0.0000    0.0000 C.ar    1  UNL1        0.1303
     53 S           0.0000    0.0000    0.0000 S.O2    1  UNL1        0.0933
     54 O           0.0000    0.0000    0.0000 O.2     1  UNL1       -0.1611
     55 O           0.0000    0.0000    0.0000 O.2     1  UNL1       -0.1611
     56 C           0.0000    0.0000    0.0000 C.3     1  UNL1        0.5262
     57 F           0.0000    0.0000    0.0000 F       1  UNL1       -0.1500
     58 F           0.0000    0.0000    0.0000 F       1  UNL1       -0.1500
     59 F           0.0000    0.0000    0.0000 F       1  UNL1       -0.1500
     60 C           0.0000    0.0000    0.0000 C.ar    1  UNL1        0.0402
     61 C           0.0000    0.0000    0.0000 C.ar    1  UNL1        0.0059
     62 C           0.0000    0.0000    0.0000 C.ar    1  UNL1        0.0147
     63 C           0.0000    0.0000    0.0000 C.3     1  UNL1        0.1081
     64 C           0.0000    0.0000    0.0000 C.3     1  UNL1        0.0941
     65 C           0.0000    0.0000    0.0000 C.3     1  UNL1        0.0231
@<TRIPOS>BOND
     1     1     2    1
     2     2     3    1
     3     2     4    1
     4     4     5    1
     5     5     6    1
     6     6     7    1
     7     7     8   ar
     8     8     9   ar
     9     9    10   ar
    10    10    11    1
    11    10    12   ar
    12    12    13   ar
    13     7    13   ar
    14     6    14    2
    15    14    15    1
    16    15    16    1
    17    16    17    1
    18    17    18    1
    19    18    19    1
    20    19    20    1
    21    20    21   ar
    22    21    22   ar
    23    22    23   ar
    24    23    24    1
    25    24    25    2
    26    24    26   am
    27    26    27    1
    28    27    28    2
    29    27    29    2
    30    27    30    1
    31    30    31   ar
    32    31    32   ar
    33    32    33   ar
    34    33    34    1
    35    34    35    1
    36    35    36    1
    37    36    37    1
    38    37    38    1
    39    38    39    1
    40    39    40    1
    41    40    41    1
    42    41    42    1
    43    42    43    1
    44    38    43    1
    45    35    44    1
    46    44    45    1
    47    45    46    1
    48    46    47   ar
    49    47    48   ar
    50    48    49   ar
    51    49    50   ar
    52    50    51   ar
    53    46    51   ar
    54    33    52   ar
    55    52    53    1
    56    53    54    2
    57    53    55    2
    58    53    56    1
    59    56    57    1
    60    56    58    1
    61    56    59    1
    62    52    60   ar
    63    30    60   ar
    64    23    61   ar
    65    61    62   ar
    66    20    62   ar
    67    19    63    1
    68    63    64    1
    69    16    64    1
    70    14    65    1
    71     2    65    1
