@<TRIPOS>MOLECULE
*****
 27 29 0 0 0
SMALL
GASTEIGER

@<TRIPOS>ATOM
      1 C           0.0000    0.0000    0.0000 C.2     1  UNL1        0.0049
      2 C           0.0000    0.0000    0.0000 C.2     1  UNL1        0.0598
      3 C           0.0000    0.0000    0.0000 C.2     1  UNL1        0.2692
      4 O           0.0000    0.0000    0.0000 O.2     1  UNL1       -0.2680
      5 N           0.0000    0.0000    0.0000 N.am    1  UNL1       -0.1724
      6 C           0.0000    0.0000    0.0000 C.ar    1  UNL1        0.1077
      7 C           0.0000    0.0000    0.0000 C.ar    1  UNL1        0.0240
      8 C           0.0000    0.0000    0.0000 C.ar    1  UNL1        0.0526
      9 C           0.0000    0.0000    0.0000 C.ar    1  UNL1        0.1549
     10 N           0.0000    0.0000    0.0000 N.pl3   1  UNL1       -0.1940
     11 C           0.0000    0.0000    0.0000 C.ar    1  UNL1        0.0731
     12 C           0.0000    0.0000    0.0000 C.ar    1  UNL1        0.0189
     13 C           0.0000    0.0000    0.0000 C.ar    1  UNL1        0.0318
     14 C           0.0000    0.0000    0.0000 C.ar    1  UNL1        0.1507
     15 F           0.0000    0.0000    0.0000 F       1  UNL1       -0.2033
     16 C           0.0000    0.0000    0.0000 C.ar    1  UNL1        0.0863
     17 CL          0.0000    0.0000    0.0000 Cl      1  UNL1       -0.0799
     18 C           0.0000    0.0000    0.0000 C.ar    1  UNL1        0.0302
     19 N           0.0000    0.0000    0.0000 N.ar    1  UNL1       -0.2072
     20 C           0.0000    0.0000    0.0000 C.ar    1  UNL1        0.2001
     21 N           0.0000    0.0000    0.0000 N.ar    1  UNL1       -0.2238
     22 C           0.0000    0.0000    0.0000 C.ar    1  UNL1        0.0889
     23 C           0.0000    0.0000    0.0000 C.ar    1  UNL1        0.0575
     24 C           0.0000    0.0000    0.0000 C.ar    1  UNL1        0.1552
     25 O           0.0000    0.0000    0.0000 O.3     1  UNL1       -0.4741
     26 C           0.0000    0.0000    0.0000 C.3     1  UNL1        0.2056
     27 C           0.0000    0.0000    0.0000 C.3     1  UNL1        0.0512
@<TRIPOS>BOND
     1     1     2    2
     2     2     3    1
     3     3     4    2
     4     3     5   am
     5     5     6    1
     6     6     7   ar
     7     7     8   ar
     8     8     9   ar
     9     9    10    1
    10    10    11    1
    11    11    12   ar
    12    12    13   ar
    13    13    14   ar
    14    14    15    1
    15    14    16   ar
    16    16    17    1
    17    16    18   ar
    18    11    18   ar
    19     9    19   ar
    20    19    20   ar
    21    20    21   ar
    22    21    22   ar
    23     8    22   ar
    24    22    23   ar
    25    23    24   ar
    26     6    24   ar
    27    24    25    1
    28    25    26    1
    29    26    27    1
