@<TRIPOS>MOLECULE
*****
 32 34 0 0 0
SMALL
GASTEIGER

@<TRIPOS>ATOM
      1 C           0.0000    0.0000    0.0000 C.3     1  UNL1        0.1388
      2 N           0.0000    0.0000    0.0000 N.pl3   1  UNL1       -0.1925
      3 C           0.0000    0.0000    0.0000 C.ar    1  UNL1        0.0682
      4 C           0.0000    0.0000    0.0000 C.ar    1  UNL1        0.0161
      5 C           0.0000    0.0000    0.0000 C.ar    1  UNL1        0.0011
      6 C           0.0000    0.0000    0.0000 C.ar    1  UNL1       -0.0025
      7 C           0.0000    0.0000    0.0000 C.ar    1  UNL1        0.0007
      8 C           0.0000    0.0000    0.0000 C.3     1  UNL1        0.1402
      9 N           0.0000    0.0000    0.0000 N.pl3   1  UNL1       -0.2154
     10 C           0.0000    0.0000    0.0000 C.ar    1  UNL1        0.1562
     11 N           0.0000    0.0000    0.0000 N.ar    1  UNL1       -0.1958
     12 C           0.0000    0.0000    0.0000 C.ar    1  UNL1        0.2420
     13 N           0.0000    0.0000    0.0000 N.pl3   1  UNL1       -0.1776
     14 C           0.0000    0.0000    0.0000 C.ar    1  UNL1        0.0738
     15 C           0.0000    0.0000    0.0000 C.ar    1  UNL1        0.0199
     16 C           0.0000    0.0000    0.0000 C.ar    1  UNL1        0.0434
     17 C           0.0000    0.0000    0.0000 C.ar    1  UNL1        0.1958
     18 O           0.0000    0.0000    0.0000 O.3     1  UNL1       -0.2866
     19 C           0.0000    0.0000    0.0000 C.ar    1  UNL1        0.0434
     20 C           0.0000    0.0000    0.0000 C.ar    1  UNL1        0.0199
     21 N           0.0000    0.0000    0.0000 N.ar    1  UNL1       -0.2106
     22 C           0.0000    0.0000    0.0000 C.ar    1  UNL1        0.1086
     23 C           0.0000    0.0000    0.0000 C.ar    1  UNL1        0.1235
     24 C           0.0000    0.0000    0.0000 C.3     1  UNL1        0.4227
     25 F           0.0000    0.0000    0.0000 F       1  UNL1       -0.1657
     26 F           0.0000    0.0000    0.0000 F       1  UNL1       -0.1657
     27 F           0.0000    0.0000    0.0000 F       1  UNL1       -0.1657
     28 C           0.0000    0.0000    0.0000 C.ar    1  UNL1        0.0136
     29 S           0.0000    0.0000    0.0000 S.O2    1  UNL1        0.0588
     30 C           0.0000    0.0000    0.0000 C.3     1  UNL1        0.1999
     31 O           0.0000    0.0000    0.0000 O.2     1  UNL1       -0.1542
     32 O           0.0000    0.0000    0.0000 O.2     1  UNL1       -0.1542
@<TRIPOS>BOND
     1     1     2    1
     2     2     3    1
     3     3     4   ar
     4     4     5   ar
     5     5     6   ar
     6     6     7   ar
     7     7     8    1
     8     8     9    1
     9     9    10    1
    10    10    11   ar
    11    11    12   ar
    12    12    13    1
    13    13    14    1
    14    14    15   ar
    15    15    16   ar
    16    16    17   ar
    17    17    18    1
    18    17    19   ar
    19    19    20   ar
    20    14    20   ar
    21    12    21   ar
    22    21    22   ar
    23    22    23   ar
    24    10    23   ar
    25    23    24    1
    26    24    25    1
    27    24    26    1
    28    24    27    1
    29     7    28   ar
    30     3    28   ar
    31     2    29    1
    32    29    30    1
    33    29    31    2
    34    29    32    2
