@<TRIPOS>MOLECULE
*****
 36 41 0 0 0
SMALL
GASTEIGER

@<TRIPOS>ATOM
      1 C           0.0000    0.0000    0.0000 C.3     1  UNL1        0.0051
      2 C           0.0000    0.0000    0.0000 C.3     1  UNL1        0.0276
      3 C           0.0000    0.0000    0.0000 C.ar    1  UNL1       -0.0088
      4 C           0.0000    0.0000    0.0000 C.ar    1  UNL1       -0.0002
      5 C           0.0000    0.0000    0.0000 C.ar    1  UNL1        0.0351
      6 C           0.0000    0.0000    0.0000 C.ar    1  UNL1       -0.0133
      7 C           0.0000    0.0000    0.0000 C.ar    1  UNL1        0.0104
      8 C           0.0000    0.0000    0.0000 C.ar    1  UNL1        0.0435
      9 N           0.0000    0.0000    0.0000 N.pl3   1  UNL1       -0.3077
     10 C           0.0000    0.0000    0.0000 C.3     1  UNL1        0.0922
     11 C           0.0000    0.0000    0.0000 C.3     1  UNL1        0.0374
     12 C           0.0000    0.0000    0.0000 C.3     1  UNL1        0.0610
     13 N           0.0000    0.0000    0.0000 N.3     1  UNL1       -0.2714
     14 C           0.0000    0.0000    0.0000 C.3     1  UNL1        0.0911
     15 C           0.0000    0.0000    0.0000 C.3     1  UNL1        0.1060
     16 N           0.0000    0.0000    0.0000 N.3     1  UNL1       -0.2151
     17 C           0.0000    0.0000    0.0000 C.3     1  UNL1        0.1060
     18 C           0.0000    0.0000    0.0000 C.3     1  UNL1        0.0911
     19 C           0.0000    0.0000    0.0000 C.3     1  UNL1        0.0374
     20 C           0.0000    0.0000    0.0000 C.3     1  UNL1        0.0922
     21 C           0.0000    0.0000    0.0000 C.3     1  UNL1        0.0545
     22 C           0.0000    0.0000    0.0000 C.3     1  UNL1        0.0103
     23 C           0.0000    0.0000    0.0000 C.3     1  UNL1        0.0103
     24 C           0.0000    0.0000    0.0000 C.ar    1  UNL1        0.0651
     25 N           0.0000    0.0000    0.0000 N.ar    1  UNL1       -0.2493
     26 C           0.0000    0.0000    0.0000 C.ar    1  UNL1        0.0817
     27 C           0.0000    0.0000    0.0000 C.ar    1  UNL1        0.0294
     28 C           0.0000    0.0000    0.0000 C.ar    1  UNL1        0.0699
     29 C           0.0000    0.0000    0.0000 C.1     1  UNL1        0.1005
     30 N           0.0000    0.0000    0.0000 N.1     1  UNL1       -0.1908
     31 C           0.0000    0.0000    0.0000 C.ar    1  UNL1        0.0104
     32 C           0.0000    0.0000    0.0000 C.ar    1  UNL1        0.0023
     33 C           0.0000    0.0000    0.0000 C.ar    1  UNL1        0.0219
     34 C           0.0000    0.0000    0.0000 C.ar    1  UNL1        0.0542
     35 C           0.0000    0.0000    0.0000 C.2     1  UNL1        0.1964
     36 O           0.0000    0.0000    0.0000 O.2     1  UNL1       -0.2865
@<TRIPOS>BOND
     1     1     2    1
     2     2     3    1
     3     3     4   ar
     4     4     5   ar
     5     5     6   ar
     6     6     7   ar
     7     7     8   ar
     8     3     8   ar
     9     8     9    1
    10     9    10    1
    11    10    11    1
    12    11    12    1
    13    12    13    1
    14    13    14    1
    15    14    15    1
    16    15    16    1
    17    16    17    1
    18    17    18    1
    19    13    18    1
    20    12    19    1
    21    19    20    1
    22     9    20    1
    23     6    21    1
    24    21    22    1
    25    21    23    1
    26    21    24    1
    27    24    25   ar
    28    25    26   ar
    29    26    27   ar
    30    27    28   ar
    31    28    29    1
    32    29    30    3
    33    28    31   ar
    34    31    32   ar
    35    32    33   ar
    36    26    33   ar
    37    33    34   ar
    38    24    34   ar
    39    34    35    1
    40     5    35    1
    41    35    36    2
