@<TRIPOS>MOLECULE
*****
 24 25 0 0 0
SMALL
GASTEIGER

@<TRIPOS>ATOM
      1 C           0.0000    0.0000    0.0000 C.3     1  UNL1        0.0308
      2 C           0.0000    0.0000    0.0000 C.2     1  UNL1       -0.0212
      3 C           0.0000    0.0000    0.0000 C.2     1  UNL1        0.0508
      4 C           0.0000    0.0000    0.0000 C.2     1  UNL1        0.0042
      5 C           0.0000    0.0000    0.0000 C.2     1  UNL1        0.0001
      6 C           0.0000    0.0000    0.0000 C.2     1  UNL1        0.2644
      7 O           0.0000    0.0000    0.0000 O.2     1  UNL1       -0.2684
      8 N           0.0000    0.0000    0.0000 N.am    1  UNL1       -0.2032
      9 C           0.0000    0.0000    0.0000 C.3     1  UNL1        0.1025
     10 C           0.0000    0.0000    0.0000 C.3     1  UNL1        0.0653
     11 C           0.0000    0.0000    0.0000 C.3     1  UNL1        0.1690
     12 O           0.0000    0.0000    0.0000 O.3     1  UNL1       -0.4790
     13 C           0.0000    0.0000    0.0000 C.ar    1  UNL1        0.1393
     14 C           0.0000    0.0000    0.0000 C.ar    1  UNL1        0.0376
     15 C           0.0000    0.0000    0.0000 C.ar    1  UNL1        0.0142
     16 C           0.0000    0.0000    0.0000 C.ar    1  UNL1        0.0792
     17 C           0.0000    0.0000    0.0000 C.1     1  UNL1        0.1013
     18 N           0.0000    0.0000    0.0000 N.1     1  UNL1       -0.1908
     19 C           0.0000    0.0000    0.0000 C.ar    1  UNL1        0.0703
     20 CL          0.0000    0.0000    0.0000 Cl      1  UNL1       -0.0814
     21 C           0.0000    0.0000    0.0000 C.ar    1  UNL1        0.0490
     22 C           0.0000    0.0000    0.0000 C.3     1  UNL1        0.0554
     23 C           0.0000    0.0000    0.0000 C.3     1  UNL1        0.0053
     24 C           0.0000    0.0000    0.0000 C.3     1  UNL1        0.0053
@<TRIPOS>BOND
     1     1     2    1
     2     2     3    2
     3     3     4    1
     4     4     5    2
     5     3     6    1
     6     6     7    2
     7     6     8   am
     8     8     9    1
     9     9    10    1
    10    10    11    1
    11    11    12    1
    12    12    13    1
    13    13    14   ar
    14    14    15   ar
    15    15    16   ar
    16    16    17    1
    17    17    18    3
    18    16    19   ar
    19    19    20    1
    20    19    21   ar
    21    13    21   ar
    22    11    22    1
    23     9    22    1
    24    22    23    1
    25    22    24    1
