@<TRIPOS>MOLECULE
*****
 23 26 0 0 0
SMALL
GASTEIGER

@<TRIPOS>ATOM
      1 C           0.0000    0.0000    0.0000 C.3     1  UNL1        0.0379
      2 C           0.0000    0.0000    0.0000 C.ar    1  UNL1        0.0051
      3 S           0.0000    0.0000    0.0000 S.2     1  UNL1       -0.0740
      4 C           0.0000    0.0000    0.0000 C.ar    1  UNL1        0.0970
      5 C           0.0000    0.0000    0.0000 C.ar    1  UNL1        0.0359
      6 C           0.0000    0.0000    0.0000 C.ar    1  UNL1       -0.0165
      7 C           0.0000    0.0000    0.0000 C.3     1  UNL1        0.0313
      8 C           0.0000    0.0000    0.0000 C.2     1  UNL1        0.0780
      9 C           0.0000    0.0000    0.0000 C.ar    1  UNL1        0.0174
     10 C           0.0000    0.0000    0.0000 C.ar    1  UNL1        0.0023
     11 C           0.0000    0.0000    0.0000 C.ar    1  UNL1        0.0114
     12 C           0.0000    0.0000    0.0000 C.ar    1  UNL1        0.0577
     13 CL          0.0000    0.0000    0.0000 Cl      1  UNL1       -0.0822
     14 C           0.0000    0.0000    0.0000 C.ar    1  UNL1        0.0114
     15 C           0.0000    0.0000    0.0000 C.ar    1  UNL1        0.0023
     16 N           0.0000    0.0000    0.0000 N.2     1  UNL1       -0.2621
     17 C           0.0000    0.0000    0.0000 C.3     1  UNL1        0.1911
     18 C           0.0000    0.0000    0.0000 C.ar    1  UNL1        0.1720
     19 N           0.0000    0.0000    0.0000 N.ar    1  UNL1       -0.1312
     20 N           0.0000    0.0000    0.0000 N.ar    1  UNL1       -0.1332
     21 C           0.0000    0.0000    0.0000 C.ar    1  UNL1        0.1477
     22 C           0.0000    0.0000    0.0000 C.3     1  UNL1        0.0742
     23 N           0.0000    0.0000    0.0000 N.ar    1  UNL1       -0.2735
@<TRIPOS>BOND
     1     1     2    1
     2     2     3   ar
     3     3     4   ar
     4     4     5   ar
     5     5     6   ar
     6     2     6   ar
     7     6     7    1
     8     5     8    1
     9     8     9    1
    10     9    10   ar
    11    10    11   ar
    12    11    12   ar
    13    12    13    1
    14    12    14   ar
    15    14    15   ar
    16     9    15   ar
    17     8    16    2
    18    16    17    1
    19    17    18    1
    20    18    19   ar
    21    19    20   ar
    22    20    21   ar
    23    21    22    1
    24    21    23   ar
    25    18    23   ar
    26     4    23    1
