@<TRIPOS>MOLECULE
*****
 26 28 0 0 0
SMALL
GASTEIGER

@<TRIPOS>ATOM
      1 C           0.0000    0.0000    0.0000 C.3     1  UNL1        0.1387
      2 N           0.0000    0.0000    0.0000 N.pl3   1  UNL1       -0.2018
      3 C           0.0000    0.0000    0.0000 C.ar    1  UNL1        0.2413
      4 N           0.0000    0.0000    0.0000 N.ar    1  UNL1       -0.1782
      5 C           0.0000    0.0000    0.0000 C.ar    1  UNL1        0.2413
      6 N           0.0000    0.0000    0.0000 N.pl3   1  UNL1       -0.2034
      7 C           0.0000    0.0000    0.0000 C.3     1  UNL1        0.1206
      8 C           0.0000    0.0000    0.0000 C.3     1  UNL1        0.0564
      9 C           0.0000    0.0000    0.0000 C.ar    1  UNL1        0.0091
     10 C           0.0000    0.0000    0.0000 C.ar    1  UNL1        0.0027
     11 C           0.0000    0.0000    0.0000 C.ar    1  UNL1        0.0072
     12 C           0.0000    0.0000    0.0000 C.ar    1  UNL1        0.0351
     13 S           0.0000    0.0000    0.0000 S.2     1  UNL1       -0.0907
     14 N           0.0000    0.0000    0.0000 N.ar    1  UNL1       -0.1794
     15 C           0.0000    0.0000    0.0000 C.ar    1  UNL1        0.2250
     16 N           0.0000    0.0000    0.0000 N.pl3   1  UNL1       -0.2763
     17 C           0.0000    0.0000    0.0000 C.3     1  UNL1        0.0954
     18 C           0.0000    0.0000    0.0000 C.3     1  UNL1        0.0430
     19 C           0.0000    0.0000    0.0000 C.3     1  UNL1        0.0952
     20 N           0.0000    0.0000    0.0000 N.am    1  UNL1       -0.2777
     21 C           0.0000    0.0000    0.0000 C.2     1  UNL1        0.2262
     22 C           0.0000    0.0000    0.0000 C.3     1  UNL1        0.0948
     23 O           0.0000    0.0000    0.0000 O.2     1  UNL1       -0.2749
     24 C           0.0000    0.0000    0.0000 C.3     1  UNL1        0.1148
     25 C           0.0000    0.0000    0.0000 C.3     1  UNL1        0.1150
     26 N           0.0000    0.0000    0.0000 N.ar    1  UNL1       -0.1794
@<TRIPOS>BOND
     1     1     2    1
     2     2     3    1
     3     3     4   ar
     4     4     5   ar
     5     5     6    1
     6     6     7    1
     7     7     8    1
     8     8     9    1
     9     9    10   ar
    10    10    11   ar
    11    11    12   ar
    12    12    13   ar
    13     9    13   ar
    14     5    14   ar
    15    14    15   ar
    16    15    16    1
    17    16    17    1
    18    17    18    1
    19    18    19    1
    20    19    20    1
    21    20    21   am
    22    21    22    1
    23    21    23    2
    24    20    24    1
    25    24    25    1
    26    16    25    1
    27    15    26   ar
    28     3    26   ar
