@<TRIPOS>MOLECULE
*****
 33 38 0 0 0
SMALL
GASTEIGER

@<TRIPOS>ATOM
      1 F           0.0000    0.0000    0.0000 F       1  UNL1       -0.2042
      2 C           0.0000    0.0000    0.0000 C.ar    1  UNL1        0.1399
      3 C           0.0000    0.0000    0.0000 C.ar    1  UNL1        0.0296
      4 C           0.0000    0.0000    0.0000 C.ar    1  UNL1        0.0020
      5 C           0.0000    0.0000    0.0000 C.ar    1  UNL1       -0.0025
      6 C           0.0000    0.0000    0.0000 C.ar    1  UNL1       -0.0021
      7 C           0.0000    0.0000    0.0000 C.3     1  UNL1        0.0968
      8 C           0.0000    0.0000    0.0000 C.3     1  UNL1        0.0261
      9 C           0.0000    0.0000    0.0000 C.3     1  UNL1        0.0235
     10 C           0.0000    0.0000    0.0000 C.3     1  UNL1        0.0925
     11 N           0.0000    0.0000    0.0000 N.pl3   1  UNL1       -0.2898
     12 C           0.0000    0.0000    0.0000 C.ar    1  UNL1        0.1522
     13 C           0.0000    0.0000    0.0000 C.ar    1  UNL1        0.0392
     14 C           0.0000    0.0000    0.0000 C.ar    1  UNL1        0.0417
     15 C           0.0000    0.0000    0.0000 C.ar    1  UNL1        0.1640
     16 N           0.0000    0.0000    0.0000 N.ar    1  UNL1       -0.2234
     17 C           0.0000    0.0000    0.0000 C.ar    1  UNL1        0.1212
     18 C           0.0000    0.0000    0.0000 C.ar    1  UNL1        0.1212
     19 C           0.0000    0.0000    0.0000 C.ar    1  UNL1        0.1019
     20 C           0.0000    0.0000    0.0000 C.ar    1  UNL1        0.0208
     21 C           0.0000    0.0000    0.0000 C.ar    1  UNL1        0.0045
     22 C           0.0000    0.0000    0.0000 C.ar    1  UNL1        0.0343
     23 C           0.0000    0.0000    0.0000 C.ar    1  UNL1        0.1318
     24 N           0.0000    0.0000    0.0000 N.pl3   1  UNL1       -0.2903
     25 C           0.0000    0.0000    0.0000 C.3     1  UNL1        0.1110
     26 C           0.0000    0.0000    0.0000 C.3     1  UNL1        0.1102
     27 N           0.0000    0.0000    0.0000 N.3     1  UNL1       -0.2144
     28 C           0.0000    0.0000    0.0000 C.3     1  UNL1        0.1102
     29 C           0.0000    0.0000    0.0000 C.3     1  UNL1        0.1110
     30 N           0.0000    0.0000    0.0000 N.ar    1  UNL1       -0.2291
     31 N           0.0000    0.0000    0.0000 N.ar    1  UNL1       -0.2081
     32 N           0.0000    0.0000    0.0000 N.ar    1  UNL1       -0.1486
     33 C           0.0000    0.0000    0.0000 C.ar    1  UNL1        0.0270
@<TRIPOS>BOND
     1     1     2    1
     2     2     3   ar
     3     3     4   ar
     4     4     5   ar
     5     5     6   ar
     6     6     7    1
     7     7     8    1
     8     8     9    1
     9     9    10    1
    10    10    11    1
    11     7    11    1
    12    11    12    1
    13    12    13   ar
    14    13    14   ar
    15    14    15   ar
    16    15    16   ar
    17    16    17   ar
    18    17    18   ar
    19    18    19    1
    20    19    20   ar
    21    20    21   ar
    22    21    22   ar
    23    22    23   ar
    24    23    24    1
    25    24    25    1
    26    25    26    1
    27    26    27    1
    28    27    28    1
    29    28    29    1
    30    24    29    1
    31    23    30   ar
    32    19    30   ar
    33    18    31   ar
    34    15    31   ar
    35    31    32   ar
    36    12    32   ar
    37     6    33   ar
    38     2    33   ar
