@<TRIPOS>MOLECULE
*****
 29 31 0 0 0
SMALL
GASTEIGER

@<TRIPOS>ATOM
      1 C           0.0000    0.0000    0.0000 C.3     1  UNL1        0.0232
      2 C           0.0000    0.0000    0.0000 C.3     1  UNL1        0.0922
      3 N           0.0000    0.0000    0.0000 N.pl3   1  UNL1       -0.2931
      4 C           0.0000    0.0000    0.0000 C.3     1  UNL1        0.0922
      5 C           0.0000    0.0000    0.0000 C.3     1  UNL1        0.0232
      6 C           0.0000    0.0000    0.0000 C.ar    1  UNL1        0.1359
      7 C           0.0000    0.0000    0.0000 C.ar    1  UNL1        0.0705
      8 C           0.0000    0.0000    0.0000 C.ar    1  UNL1        0.1578
      9 N           0.0000    0.0000    0.0000 N.pl3   1  UNL1       -0.1696
     10 C           0.0000    0.0000    0.0000 C.ar    1  UNL1        0.1849
     11 N           0.0000    0.0000    0.0000 N.ar    1  UNL1       -0.2208
     12 C           0.0000    0.0000    0.0000 C.ar    1  UNL1        0.1120
     13 C           0.0000    0.0000    0.0000 C.ar    1  UNL1        0.1065
     14 C           0.0000    0.0000    0.0000 C.2     1  UNL1        0.2766
     15 O           0.0000    0.0000    0.0000 O.2     1  UNL1       -0.2674
     16 N           0.0000    0.0000    0.0000 N.am    1  UNL1       -0.1744
     17 C           0.0000    0.0000    0.0000 C.ar    1  UNL1        0.0802
     18 C           0.0000    0.0000    0.0000 C.ar    1  UNL1       -0.0057
     19 C           0.0000    0.0000    0.0000 C.3     1  UNL1        0.0324
     20 C           0.0000    0.0000    0.0000 C.ar    1  UNL1       -0.0029
     21 C           0.0000    0.0000    0.0000 C.ar    1  UNL1        0.0006
     22 C           0.0000    0.0000    0.0000 C.ar    1  UNL1        0.0127
     23 C           0.0000    0.0000    0.0000 C.ar    1  UNL1        0.0726
     24 CL          0.0000    0.0000    0.0000 Cl      1  UNL1       -0.0809
     25 S           0.0000    0.0000    0.0000 S.2     1  UNL1       -0.0450
     26 N           0.0000    0.0000    0.0000 N.ar    1  UNL1       -0.2141
     27 C           0.0000    0.0000    0.0000 C.ar    1  UNL1        0.1424
     28 C           0.0000    0.0000    0.0000 C.3     1  UNL1        0.0738
     29 N           0.0000    0.0000    0.0000 N.ar    1  UNL1       -0.2159
@<TRIPOS>BOND
     1     1     2    1
     2     2     3    1
     3     3     4    1
     4     4     5    1
     5     3     6    1
     6     6     7   ar
     7     7     8   ar
     8     8     9    1
     9     9    10    1
    10    10    11   ar
    11    11    12   ar
    12    12    13   ar
    13    13    14    1
    14    14    15    2
    15    14    16   am
    16    16    17    1
    17    17    18   ar
    18    18    19    1
    19    18    20   ar
    20    20    21   ar
    21    21    22   ar
    22    22    23   ar
    23    17    23   ar
    24    23    24    1
    25    13    25   ar
    26    10    25   ar
    27     8    26   ar
    28    26    27   ar
    29    27    28    1
    30    27    29   ar
    31     6    29   ar
