@<TRIPOS>MOLECULE
*****
 32 35 0 0 0
SMALL
GASTEIGER

@<TRIPOS>ATOM
      1 N           0.0000    0.0000    0.0000 N.am    1  UNL1       -0.0836
      2 C           0.0000    0.0000    0.0000 C.2     1  UNL1        0.2885
      3 O           0.0000    0.0000    0.0000 O.2     1  UNL1       -0.2665
      4 C           0.0000    0.0000    0.0000 C.ar    1  UNL1        0.1103
      5 C           0.0000    0.0000    0.0000 C.ar    1  UNL1        0.1082
      6 C           0.0000    0.0000    0.0000 C.ar    1  UNL1        0.0198
      7 C           0.0000    0.0000    0.0000 C.ar    1  UNL1        0.0047
      8 C           0.0000    0.0000    0.0000 C.ar    1  UNL1        0.0375
      9 C           0.0000    0.0000    0.0000 C.ar    1  UNL1        0.1454
     10 O           0.0000    0.0000    0.0000 O.3     1  UNL1       -0.4512
     11 C           0.0000    0.0000    0.0000 C.ar    1  UNL1        0.1727
     12 C           0.0000    0.0000    0.0000 C.ar    1  UNL1        0.0421
     13 C           0.0000    0.0000    0.0000 C.ar    1  UNL1        0.0329
     14 C           0.0000    0.0000    0.0000 C.ar    1  UNL1        0.1426
     15 F           0.0000    0.0000    0.0000 F       1  UNL1       -0.2041
     16 C           0.0000    0.0000    0.0000 C.ar    1  UNL1        0.0624
     17 C           0.0000    0.0000    0.0000 C.ar    1  UNL1        0.1766
     18 F           0.0000    0.0000    0.0000 F       1  UNL1       -0.2009
     19 C           0.0000    0.0000    0.0000 C.ar    1  UNL1        0.0375
     20 C           0.0000    0.0000    0.0000 C.ar    1  UNL1        0.0047
     21 N           0.0000    0.0000    0.0000 N.ar    1  UNL1       -0.1680
     22 N           0.0000    0.0000    0.0000 N.ar    1  UNL1       -0.2350
     23 C           0.0000    0.0000    0.0000 C.3     1  UNL1        0.1264
     24 C           0.0000    0.0000    0.0000 C.3     1  UNL1        0.0279
     25 C           0.0000    0.0000    0.0000 C.3     1  UNL1        0.0236
     26 C           0.0000    0.0000    0.0000 C.3     1  UNL1        0.0940
     27 N           0.0000    0.0000    0.0000 N.am    1  UNL1       -0.2704
     28 C           0.0000    0.0000    0.0000 C.2     1  UNL1        0.3030
     29 O           0.0000    0.0000    0.0000 O.2     1  UNL1       -0.2649
     30 C           0.0000    0.0000    0.0000 C.3     1  UNL1        0.1181
     31 C           0.0000    0.0000    0.0000 C.ar    1  UNL1        0.1728
     32 N           0.0000    0.0000    0.0000 N.pl3   1  UNL1       -0.1073
@<TRIPOS>BOND
     1     1     2   am
     2     2     3    2
     3     2     4    1
     4     4     5   ar
     5     5     6    1
     6     6     7   ar
     7     7     8   ar
     8     8     9   ar
     9     9    10    1
    10    10    11    1
    11    11    12   ar
    12    12    13   ar
    13    13    14   ar
    14    14    15    1
    15    14    16   ar
    16    16    17   ar
    17    11    17   ar
    18    17    18    1
    19     9    19   ar
    20    19    20   ar
    21     6    20   ar
    22     5    21   ar
    23    21    22   ar
    24    22    23    1
    25    23    24    1
    26    24    25    1
    27    25    26    1
    28    26    27    1
    29    27    28   am
    30    28    29    2
    31    27    30    1
    32    23    30    1
    33    22    31   ar
    34     4    31   ar
    35    31    32    1
