@<TRIPOS>MOLECULE
*****
 26 28 0 0 0
SMALL
GASTEIGER

@<TRIPOS>ATOM
      1 C           0.0000    0.0000    0.0000 C.3     1  UNL1        0.0718
      2 C           0.0000    0.0000    0.0000 C.ar    1  UNL1        0.1208
      3 N           0.0000    0.0000    0.0000 N.ar    1  UNL1       -0.2293
      4 C           0.0000    0.0000    0.0000 C.ar    1  UNL1        0.1188
      5 C           0.0000    0.0000    0.0000 C.ar    1  UNL1        0.0981
      6 C           0.0000    0.0000    0.0000 C.ar    1  UNL1        0.1031
      7 C           0.0000    0.0000    0.0000 C.ar    1  UNL1        0.0414
      8 C           0.0000    0.0000    0.0000 C.ar    1  UNL1        0.1035
      9 N           0.0000    0.0000    0.0000 N.ar    1  UNL1       -0.2106
     10 C           0.0000    0.0000    0.0000 C.ar    1  UNL1        0.2409
     11 N           0.0000    0.0000    0.0000 N.pl3   1  UNL1       -0.1777
     12 C           0.0000    0.0000    0.0000 C.ar    1  UNL1        0.0737
     13 C           0.0000    0.0000    0.0000 C.ar    1  UNL1        0.0179
     14 C           0.0000    0.0000    0.0000 C.ar    1  UNL1        0.0197
     15 C           0.0000    0.0000    0.0000 C.ar    1  UNL1        0.1058
     16 S           0.0000    0.0000    0.0000 S.O2    1  UNL1        0.0105
     17 C           0.0000    0.0000    0.0000 C.3     1  UNL1        0.1816
     18 O           0.0000    0.0000    0.0000 O.2     1  UNL1       -0.1686
     19 O           0.0000    0.0000    0.0000 O.2     1  UNL1       -0.1686
     20 C           0.0000    0.0000    0.0000 C.ar    1  UNL1        0.0197
     21 C           0.0000    0.0000    0.0000 C.ar    1  UNL1        0.0179
     22 N           0.0000    0.0000    0.0000 N.ar    1  UNL1       -0.2106
     23 N           0.0000    0.0000    0.0000 N.ar    1  UNL1       -0.3155
     24 C           0.0000    0.0000    0.0000 C.3     1  UNL1        0.0868
     25 C           0.0000    0.0000    0.0000 C.3     1  UNL1        0.0245
     26 C           0.0000    0.0000    0.0000 C.3     1  UNL1        0.0245
@<TRIPOS>BOND
     1     1     2    1
     2     2     3   ar
     3     3     4   ar
     4     4     5   ar
     5     5     6    1
     6     6     7   ar
     7     7     8   ar
     8     8     9   ar
     9     9    10   ar
    10    10    11    1
    11    11    12    1
    12    12    13   ar
    13    13    14   ar
    14    14    15   ar
    15    15    16    1
    16    16    17    1
    17    16    18    2
    18    16    19    2
    19    15    20   ar
    20    20    21   ar
    21    12    21   ar
    22    10    22   ar
    23     6    22   ar
    24     5    23   ar
    25     2    23   ar
    26    23    24    1
    27    24    25    1
    28    24    26    1
