@<TRIPOS>MOLECULE
*****
 26 29 0 0 0
SMALL
GASTEIGER

@<TRIPOS>ATOM
      1 N           0.0000    0.0000    0.0000 N.pl3   1  UNL1       -0.1070
      2 C           0.0000    0.0000    0.0000 C.ar    1  UNL1        0.1744
      3 N           0.0000    0.0000    0.0000 N.ar    1  UNL1       -0.2056
      4 C           0.0000    0.0000    0.0000 C.ar    1  UNL1        0.2015
      5 N           0.0000    0.0000    0.0000 N.ar    1  UNL1       -0.2048
      6 C           0.0000    0.0000    0.0000 C.ar    1  UNL1        0.1670
      7 N           0.0000    0.0000    0.0000 N.ar    1  UNL1       -0.2248
      8 C           0.0000    0.0000    0.0000 C.ar    1  UNL1        0.1039
      9 C           0.0000    0.0000    0.0000 C.ar    1  UNL1        0.0639
     10 C           0.0000    0.0000    0.0000 C.2     1  UNL1        0.1981
     11 O           0.0000    0.0000    0.0000 O.2     1  UNL1       -0.2865
     12 C           0.0000    0.0000    0.0000 C.ar    1  UNL1        0.0498
     13 C           0.0000    0.0000    0.0000 C.ar    1  UNL1        0.0072
     14 C           0.0000    0.0000    0.0000 C.ar    1  UNL1        0.0376
     15 C           0.0000    0.0000    0.0000 C.ar    1  UNL1        0.1461
     16 O           0.0000    0.0000    0.0000 O.3     1  UNL1       -0.4535
     17 C           0.0000    0.0000    0.0000 C.ar    1  UNL1        0.1453
     18 C           0.0000    0.0000    0.0000 C.ar    1  UNL1        0.0375
     19 C           0.0000    0.0000    0.0000 C.ar    1  UNL1        0.0031
     20 C           0.0000    0.0000    0.0000 C.ar    1  UNL1        0.0002
     21 C           0.0000    0.0000    0.0000 C.ar    1  UNL1        0.0031
     22 C           0.0000    0.0000    0.0000 C.ar    1  UNL1        0.0375
     23 C           0.0000    0.0000    0.0000 C.ar    1  UNL1        0.0490
     24 C           0.0000    0.0000    0.0000 C.ar    1  UNL1        0.0638
     25 CL          0.0000    0.0000    0.0000 Cl      1  UNL1       -0.0820
     26 C           0.0000    0.0000    0.0000 C.ar    1  UNL1        0.0752
@<TRIPOS>BOND
     1     1     2    1
     2     2     3   ar
     3     3     4   ar
     4     4     5   ar
     5     5     6   ar
     6     6     7   ar
     7     7     8   ar
     8     8     9   ar
     9     9    10    1
    10    10    11    2
    11    10    12    1
    12    12    13   ar
    13    13    14   ar
    14    14    15   ar
    15    15    16    1
    16    16    17    1
    17    17    18   ar
    18    18    19   ar
    19    19    20   ar
    20    20    21   ar
    21    21    22   ar
    22    17    22   ar
    23    15    23   ar
    24    23    24   ar
    25    12    24   ar
    26    24    25    1
    27     9    26   ar
    28     2    26   ar
    29     6    26   ar
