@<TRIPOS>MOLECULE
*****
 39 43 0 0 0
SMALL
GASTEIGER

@<TRIPOS>ATOM
      1 C           0.0000    0.0000    0.0000 C.3     1  UNL1        0.0101
      2 C           0.0000    0.0000    0.0000 C.3     1  UNL1        0.0868
      3 C           0.0000    0.0000    0.0000 C.2     1  UNL1        0.2413
      4 O           0.0000    0.0000    0.0000 O.2     1  UNL1       -0.2733
      5 N           0.0000    0.0000    0.0000 N.am    1  UNL1       -0.2072
      6 C           0.0000    0.0000    0.0000 C.3     1  UNL1        0.0954
      7 C           0.0000    0.0000    0.0000 C.3     1  UNL1        0.0236
      8 C           0.0000    0.0000    0.0000 C.3     1  UNL1        0.0245
      9 C           0.0000    0.0000    0.0000 C.3     1  UNL1        0.0899
     10 N           0.0000    0.0000    0.0000 N.ar    1  UNL1       -0.2824
     11 C           0.0000    0.0000    0.0000 C.ar    1  UNL1        0.2616
     12 O           0.0000    0.0000    0.0000 O.2     1  UNL1       -0.2669
     13 C           0.0000    0.0000    0.0000 C.ar    1  UNL1        0.0567
     14 C           0.0000    0.0000    0.0000 C.ar    1  UNL1       -0.0127
     15 C           0.0000    0.0000    0.0000 C.3     1  UNL1        0.0313
     16 C           0.0000    0.0000    0.0000 C.ar    1  UNL1        0.0497
     17 C           0.0000    0.0000    0.0000 C.ar    1  UNL1        0.1045
     18 N           0.0000    0.0000    0.0000 N.ar    1  UNL1       -0.2105
     19 C           0.0000    0.0000    0.0000 C.ar    1  UNL1        0.2423
     20 N           0.0000    0.0000    0.0000 N.pl3   1  UNL1       -0.1745
     21 C           0.0000    0.0000    0.0000 C.ar    1  UNL1        0.1075
     22 C           0.0000    0.0000    0.0000 C.ar    1  UNL1        0.0210
     23 C           0.0000    0.0000    0.0000 C.ar    1  UNL1        0.0161
     24 C           0.0000    0.0000    0.0000 C.ar    1  UNL1        0.0510
     25 N           0.0000    0.0000    0.0000 N.pl3   1  UNL1       -0.3046
     26 C           0.0000    0.0000    0.0000 C.3     1  UNL1        0.1081
     27 C           0.0000    0.0000    0.0000 C.3     1  UNL1        0.0938
     28 N           0.0000    0.0000    0.0000 N.3     1  UNL1       -0.2686
     29 C           0.0000    0.0000    0.0000 C.3     1  UNL1        0.0897
     30 C           0.0000    0.0000    0.0000 C.3     1  UNL1        0.0938
     31 C           0.0000    0.0000    0.0000 C.3     1  UNL1        0.1081
     32 C           0.0000    0.0000    0.0000 C.ar    1  UNL1        0.0527
     33 C           0.0000    0.0000    0.0000 C.ar    1  UNL1        0.1551
     34 O           0.0000    0.0000    0.0000 O.3     1  UNL1       -0.4701
     35 C           0.0000    0.0000    0.0000 C.3     1  UNL1        0.2525
     36 N           0.0000    0.0000    0.0000 N.ar    1  UNL1       -0.1947
     37 C           0.0000    0.0000    0.0000 C.ar    1  UNL1        0.1501
     38 C           0.0000    0.0000    0.0000 C.3     1  UNL1        0.0245
     39 C           0.0000    0.0000    0.0000 C.3     1  UNL1        0.0236
@<TRIPOS>BOND
     1     1     2    1
     2     2     3    1
     3     3     4    2
     4     3     5   am
     5     5     6    1
     6     6     7    1
     7     7     8    1
     8     8     9    1
     9     9    10    1
    10    10    11   ar
    11    11    12    2
    12    11    13   ar
    13    13    14   ar
    14    14    15    1
    15    14    16   ar
    16    16    17   ar
    17    17    18   ar
    18    18    19   ar
    19    19    20    1
    20    20    21    1
    21    21    22   ar
    22    22    23   ar
    23    23    24   ar
    24    24    25    1
    25    25    26    1
    26    26    27    1
    27    27    28    1
    28    28    29    1
    29    28    30    1
    30    30    31    1
    31    25    31    1
    32    24    32   ar
    33    32    33   ar
    34    21    33   ar
    35    33    34    1
    36    34    35    1
    37    19    36   ar
    38    36    37   ar
    39    16    37   ar
    40    10    37   ar
    41     9    38    1
    42    38    39    1
    43     6    39    1
