@<TRIPOS>MOLECULE
*****
 33 36 0 0 0
SMALL
GASTEIGER

@<TRIPOS>ATOM
      1 C           0.0000    0.0000    0.0000 C.3     1  UNL1        0.2525
      2 O           0.0000    0.0000    0.0000 O.3     1  UNL1       -0.4701
      3 C           0.0000    0.0000    0.0000 C.ar    1  UNL1        0.1551
      4 C           0.0000    0.0000    0.0000 C.ar    1  UNL1        0.0527
      5 C           0.0000    0.0000    0.0000 C.ar    1  UNL1        0.0511
      6 N           0.0000    0.0000    0.0000 N.pl3   1  UNL1       -0.3045
      7 C           0.0000    0.0000    0.0000 C.3     1  UNL1        0.1096
      8 C           0.0000    0.0000    0.0000 C.3     1  UNL1        0.1101
      9 N           0.0000    0.0000    0.0000 N.3     1  UNL1       -0.2144
     10 C           0.0000    0.0000    0.0000 C.3     1  UNL1        0.1101
     11 C           0.0000    0.0000    0.0000 C.3     1  UNL1        0.1096
     12 C           0.0000    0.0000    0.0000 C.ar    1  UNL1        0.0161
     13 C           0.0000    0.0000    0.0000 C.ar    1  UNL1        0.0210
     14 C           0.0000    0.0000    0.0000 C.ar    1  UNL1        0.1075
     15 N           0.0000    0.0000    0.0000 N.pl3   1  UNL1       -0.1745
     16 C           0.0000    0.0000    0.0000 C.ar    1  UNL1        0.2422
     17 N           0.0000    0.0000    0.0000 N.ar    1  UNL1       -0.2096
     18 C           0.0000    0.0000    0.0000 C.ar    1  UNL1        0.1161
     19 C           0.0000    0.0000    0.0000 C.ar    1  UNL1        0.1101
     20 CL          0.0000    0.0000    0.0000 Cl      1  UNL1       -0.0776
     21 C           0.0000    0.0000    0.0000 C.ar    1  UNL1        0.1668
     22 N           0.0000    0.0000    0.0000 N.pl3   1  UNL1       -0.1932
     23 C           0.0000    0.0000    0.0000 C.ar    1  UNL1        0.0748
     24 C           0.0000    0.0000    0.0000 C.ar    1  UNL1        0.0167
     25 C           0.0000    0.0000    0.0000 C.ar    1  UNL1        0.0013
     26 C           0.0000    0.0000    0.0000 C.ar    1  UNL1        0.0002
     27 C           0.0000    0.0000    0.0000 C.ar    1  UNL1        0.0041
     28 C           0.0000    0.0000    0.0000 C.ar    1  UNL1        0.0449
     29 P           0.0000    0.0000    0.0000 P.3     1  UNL1        0.1366
     30 C           0.0000    0.0000    0.0000 C.3     1  UNL1        0.0720
     31 C           0.0000    0.0000    0.0000 C.3     1  UNL1        0.0720
     32 O           0.0000    0.0000    0.0000 O.2     1  UNL1       -0.3148
     33 N           0.0000    0.0000    0.0000 N.ar    1  UNL1       -0.1945
@<TRIPOS>BOND
     1     1     2    1
     2     2     3    1
     3     3     4   ar
     4     4     5   ar
     5     5     6    1
     6     6     7    1
     7     7     8    1
     8     8     9    1
     9     9    10    1
    10    10    11    1
    11     6    11    1
    12     5    12   ar
    13    12    13   ar
    14    13    14   ar
    15     3    14   ar
    16    14    15    1
    17    15    16    1
    18    16    17   ar
    19    17    18   ar
    20    18    19   ar
    21    19    20    1
    22    19    21   ar
    23    21    22    1
    24    22    23    1
    25    23    24   ar
    26    24    25   ar
    27    25    26   ar
    28    26    27   ar
    29    27    28   ar
    30    23    28   ar
    31    28    29    1
    32    29    30    1
    33    29    31    1
    34    29    32    2
    35    21    33   ar
    36    16    33   ar
