@<TRIPOS>MOLECULE
*****
 40 45 0 0 0
SMALL
GASTEIGER

@<TRIPOS>ATOM
      1 C           0.0000    0.0000    0.0000 C.3     1  UNL1        0.0101
      2 C           0.0000    0.0000    0.0000 C.3     1  UNL1        0.0853
      3 C           0.0000    0.0000    0.0000 C.2     1  UNL1        0.2257
      4 O           0.0000    0.0000    0.0000 O.2     1  UNL1       -0.2749
      5 N           0.0000    0.0000    0.0000 N.am    1  UNL1       -0.2776
      6 C           0.0000    0.0000    0.0000 C.3     1  UNL1        0.0935
      7 C           0.0000    0.0000    0.0000 C.3     1  UNL1        0.0235
      8 C           0.0000    0.0000    0.0000 C.3     1  UNL1        0.0262
      9 C           0.0000    0.0000    0.0000 C.3     1  UNL1        0.1093
     10 N           0.0000    0.0000    0.0000 N.ar    1  UNL1       -0.2836
     11 C           0.0000    0.0000    0.0000 C.ar    1  UNL1        0.2230
     12 N           0.0000    0.0000    0.0000 N.pl3   1  UNL1       -0.1790
     13 C           0.0000    0.0000    0.0000 C.ar    1  UNL1        0.0735
     14 C           0.0000    0.0000    0.0000 C.ar    1  UNL1        0.0166
     15 C           0.0000    0.0000    0.0000 C.ar    1  UNL1        0.0013
     16 C           0.0000    0.0000    0.0000 C.ar    1  UNL1        0.0001
     17 C           0.0000    0.0000    0.0000 C.ar    1  UNL1        0.0013
     18 C           0.0000    0.0000    0.0000 C.ar    1  UNL1        0.0166
     19 N           0.0000    0.0000    0.0000 N.ar    1  UNL1       -0.2089
     20 C           0.0000    0.0000    0.0000 C.ar    1  UNL1        0.1375
     21 C           0.0000    0.0000    0.0000 C.ar    1  UNL1        0.1241
     22 N           0.0000    0.0000    0.0000 N.ar    1  UNL1       -0.2089
     23 C           0.0000    0.0000    0.0000 C.ar    1  UNL1        0.2423
     24 N           0.0000    0.0000    0.0000 N.pl3   1  UNL1       -0.1776
     25 C           0.0000    0.0000    0.0000 C.ar    1  UNL1        0.0737
     26 C           0.0000    0.0000    0.0000 C.ar    1  UNL1        0.0179
     27 C           0.0000    0.0000    0.0000 C.ar    1  UNL1        0.0159
     28 C           0.0000    0.0000    0.0000 C.ar    1  UNL1        0.0480
     29 N           0.0000    0.0000    0.0000 N.pl3   1  UNL1       -0.3046
     30 C           0.0000    0.0000    0.0000 C.3     1  UNL1        0.1081
     31 C           0.0000    0.0000    0.0000 C.3     1  UNL1        0.0938
     32 N           0.0000    0.0000    0.0000 N.3     1  UNL1       -0.2686
     33 C           0.0000    0.0000    0.0000 C.3     1  UNL1        0.0897
     34 C           0.0000    0.0000    0.0000 C.3     1  UNL1        0.0938
     35 C           0.0000    0.0000    0.0000 C.3     1  UNL1        0.1081
     36 C           0.0000    0.0000    0.0000 C.ar    1  UNL1        0.0159
     37 C           0.0000    0.0000    0.0000 C.ar    1  UNL1        0.0179
     38 N           0.0000    0.0000    0.0000 N.ar    1  UNL1       -0.1931
     39 C           0.0000    0.0000    0.0000 C.ar    1  UNL1        0.1682
     40 C           0.0000    0.0000    0.0000 C.3     1  UNL1        0.1160
@<TRIPOS>BOND
     1     1     2    1
     2     2     3    1
     3     3     4    2
     4     3     5   am
     5     5     6    1
     6     6     7    1
     7     7     8    1
     8     8     9    1
     9     9    10    1
    10    10    11   ar
    11    11    12    1
    12    12    13    1
    13    13    14   ar
    14    14    15   ar
    15    15    16   ar
    16    16    17   ar
    17    17    18   ar
    18    13    18   ar
    19    11    19   ar
    20    19    20   ar
    21    20    21   ar
    22    21    22   ar
    23    22    23   ar
    24    23    24    1
    25    24    25    1
    26    25    26   ar
    27    26    27   ar
    28    27    28   ar
    29    28    29    1
    30    29    30    1
    31    30    31    1
    32    31    32    1
    33    32    33    1
    34    32    34    1
    35    34    35    1
    36    29    35    1
    37    28    36   ar
    38    36    37   ar
    39    25    37   ar
    40    23    38   ar
    41    38    39   ar
    42    20    39   ar
    43    10    39   ar
    44     9    40    1
    45     5    40    1
