@<TRIPOS>MOLECULE
*****
 32 36 0 0 0
SMALL
GASTEIGER

@<TRIPOS>ATOM
      1 C           0.0000    0.0000    0.0000 C.3     1  UNL1        0.1153
      2 N           0.0000    0.0000    0.0000 N.am    1  UNL1       -0.2714
      3 C           0.0000    0.0000    0.0000 C.3     1  UNL1        0.1153
      4 C           0.0000    0.0000    0.0000 C.2     1  UNL1        0.2651
      5 O           0.0000    0.0000    0.0000 O.2     1  UNL1       -0.2683
      6 C           0.0000    0.0000    0.0000 C.ar    1  UNL1        0.1153
      7 C           0.0000    0.0000    0.0000 C.ar    1  UNL1        0.0264
      8 C           0.0000    0.0000    0.0000 C.ar    1  UNL1        0.0550
      9 C           0.0000    0.0000    0.0000 C.ar    1  UNL1        0.1049
     10 N           0.0000    0.0000    0.0000 N.ar    1  UNL1       -0.2105
     11 C           0.0000    0.0000    0.0000 C.ar    1  UNL1        0.2435
     12 N           0.0000    0.0000    0.0000 N.pl3   1  UNL1       -0.1588
     13 C           0.0000    0.0000    0.0000 C.ar    1  UNL1        0.1548
     14 C           0.0000    0.0000    0.0000 C.ar    1  UNL1        0.0375
     15 C           0.0000    0.0000    0.0000 C.ar    1  UNL1        0.0190
     16 C           0.0000    0.0000    0.0000 C.ar    1  UNL1        0.0675
     17 N           0.0000    0.0000    0.0000 N.pl3   1  UNL1       -0.3033
     18 C           0.0000    0.0000    0.0000 C.3     1  UNL1        0.1096
     19 C           0.0000    0.0000    0.0000 C.3     1  UNL1        0.1101
     20 N           0.0000    0.0000    0.0000 N.3     1  UNL1       -0.2144
     21 C           0.0000    0.0000    0.0000 C.3     1  UNL1        0.1101
     22 C           0.0000    0.0000    0.0000 C.3     1  UNL1        0.1096
     23 C           0.0000    0.0000    0.0000 C.ar    1  UNL1        0.1148
     24 N           0.0000    0.0000    0.0000 N.ar    1  UNL1       -0.2260
     25 N           0.0000    0.0000    0.0000 N.ar    1  UNL1       -0.1947
     26 C           0.0000    0.0000    0.0000 C.ar    1  UNL1        0.1483
     27 N           0.0000    0.0000    0.0000 N.ar    1  UNL1       -0.3108
     28 C           0.0000    0.0000    0.0000 C.3     1  UNL1        0.0870
     29 C           0.0000    0.0000    0.0000 C.3     1  UNL1        0.0226
     30 C           0.0000    0.0000    0.0000 C.3     1  UNL1        0.0020
     31 C           0.0000    0.0000    0.0000 C.3     1  UNL1        0.0020
     32 C           0.0000    0.0000    0.0000 C.3     1  UNL1        0.0226
@<TRIPOS>BOND
     1     1     2    1
     2     2     3    1
     3     2     4   am
     4     4     5    2
     5     4     6    1
     6     6     7   ar
     7     7     8   ar
     8     8     9   ar
     9     9    10   ar
    10    10    11   ar
    11    11    12    1
    12    12    13    1
    13    13    14   ar
    14    14    15   ar
    15    15    16   ar
    16    16    17    1
    17    17    18    1
    18    18    19    1
    19    19    20    1
    20    20    21    1
    21    21    22    1
    22    17    22    1
    23    16    23   ar
    24    23    24   ar
    25    13    24   ar
    26    11    25   ar
    27    25    26   ar
    28     8    26   ar
    29    26    27   ar
    30     6    27   ar
    31    27    28    1
    32    28    29    1
    33    29    30    1
    34    30    31    1
    35    31    32    1
    36    28    32    1
