@<TRIPOS>MOLECULE
*****
 27 29 0 0 0
SMALL
GASTEIGER

@<TRIPOS>ATOM
      1 N           0.0000    0.0000    0.0000 N.am    1  UNL1       -0.0837
      2 C           0.0000    0.0000    0.0000 C.2     1  UNL1        0.2842
      3 O           0.0000    0.0000    0.0000 O.2     1  UNL1       -0.2667
      4 C           0.0000    0.0000    0.0000 C.ar    1  UNL1        0.0567
      5 C           0.0000    0.0000    0.0000 C.ar    1  UNL1        0.0046
      6 C           0.0000    0.0000    0.0000 C.ar    1  UNL1        0.0002
      7 C           0.0000    0.0000    0.0000 C.ar    1  UNL1        0.0015
      8 C           0.0000    0.0000    0.0000 C.ar    1  UNL1        0.0179
      9 C           0.0000    0.0000    0.0000 C.ar    1  UNL1        0.0859
     10 C           0.0000    0.0000    0.0000 C.ar    1  UNL1        0.0553
     11 C           0.0000    0.0000    0.0000 C.ar    1  UNL1        0.1550
     12 N           0.0000    0.0000    0.0000 N.pl3   1  UNL1       -0.1940
     13 C           0.0000    0.0000    0.0000 C.ar    1  UNL1        0.0723
     14 C           0.0000    0.0000    0.0000 C.ar    1  UNL1        0.0197
     15 C           0.0000    0.0000    0.0000 C.ar    1  UNL1        0.0385
     16 C           0.0000    0.0000    0.0000 C.ar    1  UNL1        0.1469
     17 O           0.0000    0.0000    0.0000 O.3     1  UNL1       -0.4045
     18 C           0.0000    0.0000    0.0000 C.3     1  UNL1        0.5753
     19 F           0.0000    0.0000    0.0000 F       1  UNL1       -0.1328
     20 F           0.0000    0.0000    0.0000 F       1  UNL1       -0.1328
     21 F           0.0000    0.0000    0.0000 F       1  UNL1       -0.1328
     22 C           0.0000    0.0000    0.0000 C.ar    1  UNL1        0.0385
     23 C           0.0000    0.0000    0.0000 C.ar    1  UNL1        0.0197
     24 N           0.0000    0.0000    0.0000 N.ar    1  UNL1       -0.2072
     25 C           0.0000    0.0000    0.0000 C.ar    1  UNL1        0.2001
     26 N           0.0000    0.0000    0.0000 N.ar    1  UNL1       -0.2239
     27 C           0.0000    0.0000    0.0000 C.ar    1  UNL1        0.0061
@<TRIPOS>BOND
     1     1     2   am
     2     2     3    2
     3     2     4    1
     4     4     5   ar
     5     5     6   ar
     6     6     7   ar
     7     7     8   ar
     8     8     9    1
     9     9    10   ar
    10    10    11   ar
    11    11    12    1
    12    12    13    1
    13    13    14   ar
    14    14    15   ar
    15    15    16   ar
    16    16    17    1
    17    17    18    1
    18    18    19    1
    19    18    20    1
    20    18    21    1
    21    16    22   ar
    22    22    23   ar
    23    13    23   ar
    24    11    24   ar
    25    24    25   ar
    26    25    26   ar
    27     9    26   ar
    28     8    27   ar
    29     4    27   ar
