@<TRIPOS>MOLECULE
*****
 36 39 0 0 0
SMALL
GASTEIGER

@<TRIPOS>ATOM
      1 C           0.0000    0.0000    0.0000 C.3     1  UNL1        0.0510
      2 C           0.0000    0.0000    0.0000 C.2     1  UNL1        0.0701
      3 N           0.0000    0.0000    0.0000 N.pl3   1  UNL1       -0.1326
      4 C           0.0000    0.0000    0.0000 C.2     1  UNL1        0.0505
      5 C           0.0000    0.0000    0.0000 C.2     1  UNL1        0.1398
      6 C           0.0000    0.0000    0.0000 C.2     1  UNL1        0.0400
      7 O           0.0000    0.0000    0.0000 O.2     1  UNL1       -0.4735
      8 C           0.0000    0.0000    0.0000 C.3     1  UNL1        0.2287
      9 C           0.0000    0.0000    0.0000 C.3     1  UNL1        0.1623
     10 N           0.0000    0.0000    0.0000 N.am    1  UNL1       -0.2014
     11 C           0.0000    0.0000    0.0000 C.2     1  UNL1        0.2439
     12 O           0.0000    0.0000    0.0000 O.2     1  UNL1       -0.2733
     13 C           0.0000    0.0000    0.0000 C.3     1  UNL1        0.1188
     14 C           0.0000    0.0000    0.0000 C.3     1  UNL1        0.1707
     15 N           0.0000    0.0000    0.0000 N.2     1  UNL1       -0.2641
     16 C           0.0000    0.0000    0.0000 C.2     1  UNL1        0.0780
     17 C           0.0000    0.0000    0.0000 C.ar    1  UNL1        0.0174
     18 C           0.0000    0.0000    0.0000 C.ar    1  UNL1        0.0023
     19 C           0.0000    0.0000    0.0000 C.ar    1  UNL1        0.0114
     20 C           0.0000    0.0000    0.0000 C.ar    1  UNL1        0.0577
     21 CL          0.0000    0.0000    0.0000 Cl      1  UNL1       -0.0822
     22 C           0.0000    0.0000    0.0000 C.ar    1  UNL1        0.0114
     23 C           0.0000    0.0000    0.0000 C.ar    1  UNL1        0.0023
     24 C           0.0000    0.0000    0.0000 C.ar    1  UNL1        0.0359
     25 C           0.0000    0.0000    0.0000 C.ar    1  UNL1        0.0970
     26 S           0.0000    0.0000    0.0000 S.2     1  UNL1       -0.0740
     27 C           0.0000    0.0000    0.0000 C.ar    1  UNL1        0.0051
     28 C           0.0000    0.0000    0.0000 C.3     1  UNL1        0.0379
     29 C           0.0000    0.0000    0.0000 C.ar    1  UNL1       -0.0165
     30 C           0.0000    0.0000    0.0000 C.3     1  UNL1        0.0313
     31 N           0.0000    0.0000    0.0000 N.ar    1  UNL1       -0.2736
     32 C           0.0000    0.0000    0.0000 C.ar    1  UNL1        0.1477
     33 C           0.0000    0.0000    0.0000 C.3     1  UNL1        0.0742
     34 N           0.0000    0.0000    0.0000 N.ar    1  UNL1       -0.1332
     35 N           0.0000    0.0000    0.0000 N.ar    1  UNL1       -0.1313
     36 C           0.0000    0.0000    0.0000 C.ar    1  UNL1        0.1701
@<TRIPOS>BOND
     1     1     2    1
     2     2     3    1
     3     2     4    2
     4     4     5    1
     5     5     6    2
     6     5     7    1
     7     7     8    1
     8     8     9    1
     9     9    10    1
    10    10    11   am
    11    11    12    2
    12    11    13    1
    13    13    14    1
    14    14    15    1
    15    15    16    2
    16    16    17    1
    17    17    18   ar
    18    18    19   ar
    19    19    20   ar
    20    20    21    1
    21    20    22   ar
    22    22    23   ar
    23    17    23   ar
    24    16    24    1
    25    24    25   ar
    26    25    26   ar
    27    26    27   ar
    28    27    28    1
    29    27    29   ar
    30    24    29   ar
    31    29    30    1
    32    25    31    1
    33    31    32   ar
    34    32    33    1
    35    32    34   ar
    36    34    35   ar
    37    35    36   ar
    38    31    36   ar
    39    14    36    1
