@<TRIPOS>MOLECULE
*****
 17 18 0 0 0
SMALL
GASTEIGER

@<TRIPOS>ATOM
      1 C           0.0000    0.0000    0.0000 C.3     1  UNL1        0.0320
      2 C           0.0000    0.0000    0.0000 C.2     1  UNL1       -0.0108
      3 C           0.0000    0.0000    0.0000 C.2     1  UNL1        0.0531
      4 C           0.0000    0.0000    0.0000 C.2     1  UNL1        0.0147
      5 C           0.0000    0.0000    0.0000 C.2     1  UNL1        0.0013
      6 N           0.0000    0.0000    0.0000 N.am    1  UNL1       -0.2207
      7 C           0.0000    0.0000    0.0000 C.3     1  UNL1        0.1311
      8 C           0.0000    0.0000    0.0000 C.ar    1  UNL1        0.0331
      9 C           0.0000    0.0000    0.0000 C.ar    1  UNL1        0.0037
     10 C           0.0000    0.0000    0.0000 C.ar    1  UNL1        0.0420
     11 C           0.0000    0.0000    0.0000 C.ar    1  UNL1        0.1988
     12 O           0.0000    0.0000    0.0000 O.3     1  UNL1       -0.2865
     13 C           0.0000    0.0000    0.0000 C.ar    1  UNL1        0.0794
     14 C           0.0000    0.0000    0.0000 C.ar    1  UNL1        0.1508
     15 O           0.0000    0.0000    0.0000 O.3     1  UNL1       -0.4100
     16 C           0.0000    0.0000    0.0000 C.2     1  UNL1        0.4135
     17 O           0.0000    0.0000    0.0000 O.2     1  UNL1       -0.2254
@<TRIPOS>BOND
     1     1     2    1
     2     2     3    2
     3     3     4    1
     4     4     5    2
     5     3     6    1
     6     6     7    1
     7     7     8    1
     8     8     9   ar
     9     9    10   ar
    10    10    11   ar
    11    11    12    1
    12    11    13   ar
    13    13    14   ar
    14     8    14   ar
    15    14    15    1
    16    15    16    1
    17     6    16   am
    18    16    17    2
