@<TRIPOS>MOLECULE
*****
 64 69 0 0 0
SMALL
GASTEIGER

@<TRIPOS>ATOM
      1 C           0.0000    0.0000    0.0000 C.3     1  UNL1        0.0188
      2 C           0.0000    0.0000    0.0000 C.3     1  UNL1        0.0721
      3 N           0.0000    0.0000    0.0000 N.3     1  UNL1       -0.2726
      4 C           0.0000    0.0000    0.0000 C.3     1  UNL1        0.0721
      5 C           0.0000    0.0000    0.0000 C.3     1  UNL1        0.0188
      6 C           0.0000    0.0000    0.0000 C.3     1  UNL1        0.0739
      7 C           0.0000    0.0000    0.0000 C.3     1  UNL1        0.0398
      8 C           0.0000    0.0000    0.0000 C.3     1  UNL1        0.1050
      9 C           0.0000    0.0000    0.0000 C.3     1  UNL1        0.0837
     10 S           0.0000    0.0000    0.0000 S.3     1  UNL1       -0.1119
     11 C           0.0000    0.0000    0.0000 C.ar    1  UNL1        0.0253
     12 C           0.0000    0.0000    0.0000 C.ar    1  UNL1        0.0061
     13 C           0.0000    0.0000    0.0000 C.ar    1  UNL1        0.0005
     14 C           0.0000    0.0000    0.0000 C.ar    1  UNL1        0.0000
     15 C           0.0000    0.0000    0.0000 C.ar    1  UNL1        0.0005
     16 C           0.0000    0.0000    0.0000 C.ar    1  UNL1        0.0061
     17 N           0.0000    0.0000    0.0000 N.pl3   1  UNL1       -0.2371
     18 C           0.0000    0.0000    0.0000 C.ar    1  UNL1        0.0827
     19 C           0.0000    0.0000    0.0000 C.ar    1  UNL1        0.0188
     20 C           0.0000    0.0000    0.0000 C.ar    1  UNL1        0.0217
     21 C           0.0000    0.0000    0.0000 C.ar    1  UNL1        0.1285
     22 S           0.0000    0.0000    0.0000 S.O2    1  UNL1        0.0957
     23 O           0.0000    0.0000    0.0000 O.2     1  UNL1       -0.1482
     24 O           0.0000    0.0000    0.0000 O.2     1  UNL1       -0.1482
     25 N           0.0000    0.0000    0.0000 N.am    1  UNL1       -0.0549
     26 C           0.0000    0.0000    0.0000 C.2     1  UNL1        0.2857
     27 O           0.0000    0.0000    0.0000 O.2     1  UNL1       -0.2667
     28 C           0.0000    0.0000    0.0000 C.ar    1  UNL1        0.0567
     29 C           0.0000    0.0000    0.0000 C.ar    1  UNL1        0.0059
     30 C           0.0000    0.0000    0.0000 C.ar    1  UNL1        0.0147
     31 C           0.0000    0.0000    0.0000 C.ar    1  UNL1        0.0479
     32 N           0.0000    0.0000    0.0000 N.pl3   1  UNL1       -0.3046
     33 C           0.0000    0.0000    0.0000 C.3     1  UNL1        0.1081
     34 C           0.0000    0.0000    0.0000 C.3     1  UNL1        0.0941
     35 N           0.0000    0.0000    0.0000 N.3     1  UNL1       -0.2663
     36 C           0.0000    0.0000    0.0000 C.3     1  UNL1        0.0946
     37 C           0.0000    0.0000    0.0000 C.2     1  UNL1       -0.0323
     38 C           0.0000    0.0000    0.0000 C.2     1  UNL1       -0.0288
     39 C           0.0000    0.0000    0.0000 C.ar    1  UNL1       -0.0045
     40 C           0.0000    0.0000    0.0000 C.ar    1  UNL1        0.0005
     41 C           0.0000    0.0000    0.0000 C.ar    1  UNL1        0.0114
     42 C           0.0000    0.0000    0.0000 C.ar    1  UNL1        0.0577
     43 CL          0.0000    0.0000    0.0000 Cl      1  UNL1       -0.0822
     44 C           0.0000    0.0000    0.0000 C.ar    1  UNL1        0.0114
     45 C           0.0000    0.0000    0.0000 C.ar    1  UNL1        0.0005
     46 C           0.0000    0.0000    0.0000 C.3     1  UNL1        0.0258
     47 C           0.0000    0.0000    0.0000 C.3     1  UNL1        0.0050
     48 C           0.0000    0.0000    0.0000 C.3     1  UNL1        0.0041
     49 C           0.0000    0.0000    0.0000 C.3     1  UNL1        0.0003
     50 C           0.0000    0.0000    0.0000 C.3     1  UNL1        0.0003
     51 C           0.0000    0.0000    0.0000 C.3     1  UNL1        0.0231
     52 C           0.0000    0.0000    0.0000 C.3     1  UNL1        0.0941
     53 C           0.0000    0.0000    0.0000 C.3     1  UNL1        0.1081
     54 C           0.0000    0.0000    0.0000 C.ar    1  UNL1        0.0147
     55 C           0.0000    0.0000    0.0000 C.ar    1  UNL1        0.0059
     56 C           0.0000    0.0000    0.0000 C.ar    1  UNL1        0.0402
     57 C           0.0000    0.0000    0.0000 C.ar    1  UNL1        0.1303
     58 S           0.0000    0.0000    0.0000 S.O2    1  UNL1        0.0933
     59 O           0.0000    0.0000    0.0000 O.2     1  UNL1       -0.1611
     60 O           0.0000    0.0000    0.0000 O.2     1  UNL1       -0.1611
     61 C           0.0000    0.0000    0.0000 C.3     1  UNL1        0.5262
     62 F           0.0000    0.0000    0.0000 F       1  UNL1       -0.1500
     63 F           0.0000    0.0000    0.0000 F       1  UNL1       -0.1500
     64 F           0.0000    0.0000    0.0000 F       1  UNL1       -0.1500
@<TRIPOS>BOND
     1     1     2    1
     2     2     3    1
     3     3     4    1
     4     4     5    1
     5     3     6    1
     6     6     7    1
     7     7     8    1
     8     8     9    1
     9     9    10    1
    10    10    11    1
    11    11    12   ar
    12    12    13   ar
    13    13    14   ar
    14    14    15   ar
    15    15    16   ar
    16    11    16   ar
    17     8    17    1
    18    17    18    1
    19    18    19   ar
    20    19    20   ar
    21    20    21   ar
    22    21    22    1
    23    22    23    2
    24    22    24    2
    25    22    25    1
    26    25    26   am
    27    26    27    2
    28    26    28    1
    29    28    29   ar
    30    29    30   ar
    31    30    31   ar
    32    31    32    1
    33    32    33    1
    34    33    34    1
    35    34    35    1
    36    35    36    1
    37    36    37    1
    38    37    38    2
    39    38    39    1
    40    39    40   ar
    41    40    41   ar
    42    41    42   ar
    43    42    43    1
    44    42    44   ar
    45    44    45   ar
    46    39    45   ar
    47    38    46    1
    48    46    47    1
    49    47    48    1
    50    48    49    1
    51    48    50    1
    52    48    51    1
    53    37    51    1
    54    35    52    1
    55    52    53    1
    56    32    53    1
    57    31    54   ar
    58    54    55   ar
    59    28    55   ar
    60    21    56   ar
    61    56    57   ar
    62    18    57   ar
    63    57    58    1
    64    58    59    2
    65    58    60    2
    66    58    61    1
    67    61    62    1
    68    61    63    1
    69    61    64    1
