@<TRIPOS>MOLECULE
*****
 38 41 0 0 0
SMALL
GASTEIGER

@<TRIPOS>ATOM
      1 C           0.0000    0.0000    0.0000 C.3     1  UNL1        0.0307
      2 C           0.0000    0.0000    0.0000 C.ar    1  UNL1       -0.0243
      3 C           0.0000    0.0000    0.0000 C.ar    1  UNL1        0.0151
      4 C           0.0000    0.0000    0.0000 C.ar    1  UNL1        0.1070
      5 N           0.0000    0.0000    0.0000 N.pl3   1  UNL1       -0.1746
      6 C           0.0000    0.0000    0.0000 C.ar    1  UNL1        0.2422
      7 N           0.0000    0.0000    0.0000 N.ar    1  UNL1       -0.2096
      8 C           0.0000    0.0000    0.0000 C.ar    1  UNL1        0.1161
      9 C           0.0000    0.0000    0.0000 C.ar    1  UNL1        0.1101
     10 CL          0.0000    0.0000    0.0000 Cl      1  UNL1       -0.0776
     11 C           0.0000    0.0000    0.0000 C.ar    1  UNL1        0.1668
     12 N           0.0000    0.0000    0.0000 N.pl3   1  UNL1       -0.1920
     13 C           0.0000    0.0000    0.0000 C.ar    1  UNL1        0.0892
     14 C           0.0000    0.0000    0.0000 C.ar    1  UNL1        0.0179
     15 C           0.0000    0.0000    0.0000 C.ar    1  UNL1        0.0014
     16 C           0.0000    0.0000    0.0000 C.ar    1  UNL1        0.0014
     17 C           0.0000    0.0000    0.0000 C.ar    1  UNL1        0.0197
     18 C           0.0000    0.0000    0.0000 C.ar    1  UNL1        0.1208
     19 S           0.0000    0.0000    0.0000 S.O2    1  UNL1        0.0082
     20 O           0.0000    0.0000    0.0000 O.2     1  UNL1       -0.1686
     21 O           0.0000    0.0000    0.0000 O.2     1  UNL1       -0.1686
     22 C           0.0000    0.0000    0.0000 C.3     1  UNL1        0.1340
     23 C           0.0000    0.0000    0.0000 C.3     1  UNL1        0.0257
     24 C           0.0000    0.0000    0.0000 C.3     1  UNL1        0.0257
     25 N           0.0000    0.0000    0.0000 N.ar    1  UNL1       -0.1945
     26 C           0.0000    0.0000    0.0000 C.ar    1  UNL1        0.1532
     27 O           0.0000    0.0000    0.0000 O.3     1  UNL1       -0.4779
     28 C           0.0000    0.0000    0.0000 C.3     1  UNL1        0.1662
     29 C           0.0000    0.0000    0.0000 C.3     1  UNL1        0.0472
     30 C           0.0000    0.0000    0.0000 C.3     1  UNL1        0.0472
     31 C           0.0000    0.0000    0.0000 C.ar    1  UNL1        0.0337
     32 C           0.0000    0.0000    0.0000 C.ar    1  UNL1       -0.0233
     33 C           0.0000    0.0000    0.0000 C.3     1  UNL1        0.0250
     34 C           0.0000    0.0000    0.0000 C.3     1  UNL1        0.0232
     35 C           0.0000    0.0000    0.0000 C.3     1  UNL1        0.0890
     36 N           0.0000    0.0000    0.0000 N.3     1  UNL1       -0.2180
     37 C           0.0000    0.0000    0.0000 C.3     1  UNL1        0.0890
     38 C           0.0000    0.0000    0.0000 C.3     1  UNL1        0.0232
@<TRIPOS>BOND
     1     1     2    1
     2     2     3   ar
     3     3     4   ar
     4     4     5    1
     5     5     6    1
     6     6     7   ar
     7     7     8   ar
     8     8     9   ar
     9     9    10    1
    10     9    11   ar
    11    11    12    1
    12    12    13    1
    13    13    14   ar
    14    14    15   ar
    15    15    16   ar
    16    16    17   ar
    17    17    18   ar
    18    13    18   ar
    19    18    19    1
    20    19    20    2
    21    19    21    2
    22    19    22    1
    23    22    23    1
    24    22    24    1
    25    11    25   ar
    26     6    25   ar
    27     4    26   ar
    28    26    27    1
    29    27    28    1
    30    28    29    1
    31    28    30    1
    32    26    31   ar
    33    31    32   ar
    34     2    32   ar
    35    32    33    1
    36    33    34    1
    37    34    35    1
    38    35    36    1
    39    36    37    1
    40    37    38    1
    41    33    38    1
