@<TRIPOS>MOLECULE
*****
 38 42 0 0 0
SMALL
GASTEIGER

@<TRIPOS>ATOM
      1 C           0.0000    0.0000    0.0000 C.3     1  UNL1        0.0188
      2 C           0.0000    0.0000    0.0000 C.3     1  UNL1        0.0722
      3 N           0.0000    0.0000    0.0000 N.3     1  UNL1       -0.2703
      4 C           0.0000    0.0000    0.0000 C.3     1  UNL1        0.0897
      5 C           0.0000    0.0000    0.0000 C.3     1  UNL1        0.0899
      6 N           0.0000    0.0000    0.0000 N.3     1  UNL1       -0.2665
      7 C           0.0000    0.0000    0.0000 C.3     1  UNL1        0.0992
      8 C           0.0000    0.0000    0.0000 C.ar    1  UNL1       -0.0022
      9 C           0.0000    0.0000    0.0000 C.ar    1  UNL1       -0.0016
     10 C           0.0000    0.0000    0.0000 C.ar    1  UNL1        0.0163
     11 C           0.0000    0.0000    0.0000 C.ar    1  UNL1        0.0736
     12 N           0.0000    0.0000    0.0000 N.am    1  UNL1       -0.1755
     13 C           0.0000    0.0000    0.0000 C.2     1  UNL1        0.2690
     14 O           0.0000    0.0000    0.0000 O.2     1  UNL1       -0.2680
     15 C           0.0000    0.0000    0.0000 C.ar    1  UNL1        0.0554
     16 C           0.0000    0.0000    0.0000 C.ar    1  UNL1        0.0046
     17 C           0.0000    0.0000    0.0000 C.ar    1  UNL1        0.0002
     18 C           0.0000    0.0000    0.0000 C.ar    1  UNL1        0.0015
     19 C           0.0000    0.0000    0.0000 C.ar    1  UNL1        0.0178
     20 C           0.0000    0.0000    0.0000 C.ar    1  UNL1        0.0819
     21 C           0.0000    0.0000    0.0000 C.ar    1  UNL1        0.0207
     22 C           0.0000    0.0000    0.0000 C.ar    1  UNL1        0.0228
     23 C           0.0000    0.0000    0.0000 C.ar    1  UNL1        0.1071
     24 N           0.0000    0.0000    0.0000 N.ar    1  UNL1       -0.2199
     25 C           0.0000    0.0000    0.0000 C.ar    1  UNL1        0.2020
     26 N           0.0000    0.0000    0.0000 N.pl3   1  UNL1       -0.0997
     27 S           0.0000    0.0000    0.0000 S.2     1  UNL1       -0.0294
     28 C           0.0000    0.0000    0.0000 C.ar    1  UNL1        0.1309
     29 N           0.0000    0.0000    0.0000 N.ar    1  UNL1       -0.2372
     30 C           0.0000    0.0000    0.0000 C.ar    1  UNL1        0.0061
     31 C           0.0000    0.0000    0.0000 C.ar    1  UNL1        0.0202
     32 C           0.0000    0.0000    0.0000 C.ar    1  UNL1        0.0701
     33 C           0.0000    0.0000    0.0000 C.3     1  UNL1        0.4184
     34 F           0.0000    0.0000    0.0000 F       1  UNL1       -0.1659
     35 F           0.0000    0.0000    0.0000 F       1  UNL1       -0.1659
     36 F           0.0000    0.0000    0.0000 F       1  UNL1       -0.1659
     37 C           0.0000    0.0000    0.0000 C.3     1  UNL1        0.0899
     38 C           0.0000    0.0000    0.0000 C.3     1  UNL1        0.0897
@<TRIPOS>BOND
     1     1     2    1
     2     2     3    1
     3     3     4    1
     4     4     5    1
     5     5     6    1
     6     6     7    1
     7     7     8    1
     8     8     9   ar
     9     9    10   ar
    10    10    11   ar
    11    11    12    1
    12    12    13   am
    13    13    14    2
    14    13    15    1
    15    15    16   ar
    16    16    17   ar
    17    17    18   ar
    18    18    19   ar
    19    19    20    1
    20    20    21   ar
    21    21    22   ar
    22    22    23   ar
    23    23    24   ar
    24    24    25   ar
    25    25    26    1
    26    25    27   ar
    27    27    28   ar
    28    23    28   ar
    29    28    29   ar
    30    20    29   ar
    31    19    30   ar
    32    15    30   ar
    33    11    31   ar
    34    31    32   ar
    35     8    32   ar
    36    32    33    1
    37    33    34    1
    38    33    35    1
    39    33    36    1
    40     6    37    1
    41    37    38    1
    42     3    38    1
