@<TRIPOS>MOLECULE
*****
 32 34 0 0 0
SMALL
GASTEIGER

@<TRIPOS>ATOM
      1 C           0.0000    0.0000    0.0000 C.3     1  UNL1        0.0323
      2 C           0.0000    0.0000    0.0000 C.2     1  UNL1       -0.0067
      3 C           0.0000    0.0000    0.0000 C.2     1  UNL1        0.0786
      4 C           0.0000    0.0000    0.0000 C.2     1  UNL1        0.0188
      5 C           0.0000    0.0000    0.0000 C.2     1  UNL1        0.0016
      6 N           0.0000    0.0000    0.0000 N.ar    1  UNL1       -0.2274
      7 C           0.0000    0.0000    0.0000 C.ar    1  UNL1        0.1182
      8 C           0.0000    0.0000    0.0000 C.ar    1  UNL1        0.1095
      9 N           0.0000    0.0000    0.0000 N.am    1  UNL1       -0.1712
     10 C           0.0000    0.0000    0.0000 C.2     1  UNL1        0.2900
     11 O           0.0000    0.0000    0.0000 O.2     1  UNL1       -0.2662
     12 C           0.0000    0.0000    0.0000 C.ar    1  UNL1        0.1770
     13 C           0.0000    0.0000    0.0000 C.ar    1  UNL1        0.2052
     14 O           0.0000    0.0000    0.0000 O.2     1  UNL1       -0.4313
     15 C           0.0000    0.0000    0.0000 C.ar    1  UNL1        0.2301
     16 C           0.0000    0.0000    0.0000 C.ar    1  UNL1        0.0579
     17 C           0.0000    0.0000    0.0000 C.ar    1  UNL1        0.0254
     18 C           0.0000    0.0000    0.0000 C.ar    1  UNL1        0.1005
     19 N           0.0000    0.0000    0.0000 N.ar    1  UNL1       -0.2277
     20 C           0.0000    0.0000    0.0000 C.ar    1  UNL1        0.1479
     21 N           0.0000    0.0000    0.0000 N.pl3   1  UNL1       -0.2112
     22 C           0.0000    0.0000    0.0000 C.3     1  UNL1        0.2166
     23 C           0.0000    0.0000    0.0000 C.3     1  UNL1        0.4174
     24 F           0.0000    0.0000    0.0000 F       1  UNL1       -0.1681
     25 F           0.0000    0.0000    0.0000 F       1  UNL1       -0.1681
     26 F           0.0000    0.0000    0.0000 F       1  UNL1       -0.1681
     27 C           0.0000    0.0000    0.0000 C.ar    1  UNL1        0.0404
     28 N           0.0000    0.0000    0.0000 N.ar    1  UNL1       -0.2034
     29 C           0.0000    0.0000    0.0000 C.ar    1  UNL1        0.1149
     30 C           0.0000    0.0000    0.0000 C.3     1  UNL1        0.1579
     31 N           0.0000    0.0000    0.0000 N.3     1  UNL1       -0.1244
     32 N           0.0000    0.0000    0.0000 N.ar    1  UNL1       -0.1666
@<TRIPOS>BOND
     1     1     2    1
     2     2     3    2
     3     3     4    1
     4     4     5    2
     5     3     6    1
     6     6     7   ar
     7     7     8   ar
     8     8     9    1
     9     9    10   am
    10    10    11    2
    11    10    12    1
    12    12    13   ar
    13    13    14   ar
    14    14    15   ar
    15    15    16    1
    16    16    17   ar
    17    17    18   ar
    18    18    19   ar
    19    19    20   ar
    20    20    21    1
    21    21    22    1
    22    22    23    1
    23    23    24    1
    24    23    25    1
    25    23    26    1
    26    20    27   ar
    27    16    27   ar
    28    15    28   ar
    29    12    28   ar
    30     8    29   ar
    31    29    30    1
    32    30    31    1
    33    29    32   ar
    34     6    32   ar
