@<TRIPOS>MOLECULE
*****
 26 28 0 0 0
SMALL
GASTEIGER

@<TRIPOS>ATOM
      1 C           0.0000    0.0000    0.0000 C.3     1  UNL1        0.0305
      2 C           0.0000    0.0000    0.0000 C.2     1  UNL1       -0.0269
      3 C           0.0000    0.0000    0.0000 C.2     1  UNL1        0.0084
      4 C           0.0000    0.0000    0.0000 C.3     1  UNL1        0.1573
      5 C           0.0000    0.0000    0.0000 C.3     1  UNL1        0.0485
      6 O           0.0000    0.0000    0.0000 O.3     1  UNL1       -0.4514
      7 C           0.0000    0.0000    0.0000 C.2     1  UNL1        0.3196
      8 O           0.0000    0.0000    0.0000 O.2     1  UNL1       -0.2500
      9 C           0.0000    0.0000    0.0000 C.3     1  UNL1        0.1270
     10 C           0.0000    0.0000    0.0000 C.3     1  UNL1        0.0399
     11 C           0.0000    0.0000    0.0000 C.2     1  UNL1       -0.0233
     12 C           0.0000    0.0000    0.0000 C.2     1  UNL1        0.0493
     13 C           0.0000    0.0000    0.0000 C.2     1  UNL1        0.3370
     14 O           0.0000    0.0000    0.0000 O.2     1  UNL1       -0.2453
     15 O           0.0000    0.0000    0.0000 O.3     1  UNL1       -0.4416
     16 C           0.0000    0.0000    0.0000 C.3     1  UNL1        0.2559
     17 C           0.0000    0.0000    0.0000 C.3     1  UNL1        0.0362
     18 C           0.0000    0.0000    0.0000 C.3     1  UNL1        0.0457
     19 C           0.0000    0.0000    0.0000 C.3     1  UNL1        0.1493
     20 O           0.0000    0.0000    0.0000 O.3     1  UNL1       -0.4550
     21 C           0.0000    0.0000    0.0000 C.2     1  UNL1        0.3173
     22 C           0.0000    0.0000    0.0000 C.3     1  UNL1        0.1212
     23 O           0.0000    0.0000    0.0000 O.2     1  UNL1       -0.2501
     24 C           0.0000    0.0000    0.0000 C.3     1  UNL1        0.0780
     25 C           0.0000    0.0000    0.0000 C.3     1  UNL1        0.0080
     26 C           0.0000    0.0000    0.0000 C.3     1  UNL1        0.0146
@<TRIPOS>BOND
     1     1     2    1
     2     2     3    2
     3     3     4    1
     4     4     5    1
     5     4     6    1
     6     6     7    1
     7     7     8    2
     8     7     9    1
     9     9    10    1
    10    10    11    1
    11    11    12    2
    12    12    13    1
    13    13    14    2
    14    13    15    1
    15    15    16    1
    16    12    17    1
    17    17    18    1
    18    18    19    1
    19     9    19    1
    20    19    20    1
    21    20    21    1
    22    21    22    1
    23    21    23    2
    24    19    24    1
    25     4    24    1
    26    24    25    1
    27    25    26    1
    28     9    26    1
