@<TRIPOS>MOLECULE
*****
 29 32 0 0 0
SMALL
GASTEIGER

@<TRIPOS>ATOM
      1 N           0.0000    0.0000    0.0000 N.1     1  UNL1       -0.1893
      2 C           0.0000    0.0000    0.0000 C.1     1  UNL1        0.1197
      3 C           0.0000    0.0000    0.0000 C.ar    1  UNL1        0.1531
      4 N           0.0000    0.0000    0.0000 N.ar    1  UNL1       -0.2323
      5 C           0.0000    0.0000    0.0000 C.ar    1  UNL1        0.1148
      6 C           0.0000    0.0000    0.0000 C.ar    1  UNL1        0.0789
      7 N           0.0000    0.0000    0.0000 N.am    1  UNL1       -0.2168
      8 C           0.0000    0.0000    0.0000 C.2     1  UNL1        0.2507
      9 O           0.0000    0.0000    0.0000 O.2     1  UNL1       -0.2724
     10 C           0.0000    0.0000    0.0000 C.3     1  UNL1        0.1326
     11 C           0.0000    0.0000    0.0000 C.3     1  UNL1        0.0275
     12 C           0.0000    0.0000    0.0000 C.3     1  UNL1        0.0043
     13 C           0.0000    0.0000    0.0000 C.3     1  UNL1        0.0275
     14 N           0.0000    0.0000    0.0000 N.am    1  UNL1       -0.2646
     15 C           0.0000    0.0000    0.0000 C.ar    1  UNL1        0.0555
     16 C           0.0000    0.0000    0.0000 C.ar    1  UNL1        0.0150
     17 C           0.0000    0.0000    0.0000 C.ar    1  UNL1        0.0036
     18 C           0.0000    0.0000    0.0000 C.ar    1  UNL1        0.0297
     19 C           0.0000    0.0000    0.0000 C.ar    1  UNL1        0.1414
     20 F           0.0000    0.0000    0.0000 F       1  UNL1       -0.2041
     21 C           0.0000    0.0000    0.0000 C.ar    1  UNL1        0.0445
     22 C           0.0000    0.0000    0.0000 C.2     1  UNL1        0.1517
     23 S           0.0000    0.0000    0.0000 S.2     1  UNL1       -0.0174
     24 C           0.0000    0.0000    0.0000 C.ar    1  UNL1        0.0229
     25 C           0.0000    0.0000    0.0000 C.ar    1  UNL1        0.1001
     26 C           0.0000    0.0000    0.0000 C.3     1  UNL1        0.4207
     27 F           0.0000    0.0000    0.0000 F       1  UNL1       -0.1658
     28 F           0.0000    0.0000    0.0000 F       1  UNL1       -0.1658
     29 F           0.0000    0.0000    0.0000 F       1  UNL1       -0.1658
@<TRIPOS>BOND
     1     1     2    3
     2     2     3    1
     3     3     4   ar
     4     4     5   ar
     5     5     6   ar
     6     6     7    1
     7     7     8   am
     8     8     9    2
     9     8    10    1
    10    10    11    1
    11    11    12    1
    12    12    13    1
    13    10    13    1
    14    10    14    1
    15    14    15    1
    16    15    16   ar
    17    16    17   ar
    18    17    18   ar
    19    18    19   ar
    20    19    20    1
    21    19    21   ar
    22    15    21   ar
    23    14    22    1
    24     7    22    1
    25    22    23    2
    26     6    24   ar
    27    24    25   ar
    28     3    25   ar
    29    25    26    1
    30    26    27    1
    31    26    28    1
    32    26    29    1
