@<TRIPOS>MOLECULE
*****
 37 40 0 0 0
SMALL
GASTEIGER

@<TRIPOS>ATOM
      1 C           0.0000    0.0000    0.0000 C.3     1  UNL1        0.0040
      2 C           0.0000    0.0000    0.0000 C.3     1  UNL1        0.0473
      3 C           0.0000    0.0000    0.0000 C.3     1  UNL1        0.2054
      4 O           0.0000    0.0000    0.0000 O.3     1  UNL1       -0.4755
      5 C           0.0000    0.0000    0.0000 C.ar    1  UNL1        0.1386
      6 C           0.0000    0.0000    0.0000 C.ar    1  UNL1        0.0369
      7 C           0.0000    0.0000    0.0000 C.ar    1  UNL1        0.0031
      8 C           0.0000    0.0000    0.0000 C.ar    1  UNL1        0.0002
      9 C           0.0000    0.0000    0.0000 C.ar    1  UNL1        0.0001
     10 C           0.0000    0.0000    0.0000 C.ar    1  UNL1        0.0013
     11 C           0.0000    0.0000    0.0000 C.ar    1  UNL1        0.0149
     12 C           0.0000    0.0000    0.0000 C.ar    1  UNL1        0.0532
     13 N           0.0000    0.0000    0.0000 N.am    1  UNL1       -0.2647
     14 C           0.0000    0.0000    0.0000 C.2     1  UNL1        0.1517
     15 S           0.0000    0.0000    0.0000 S.2     1  UNL1       -0.0174
     16 N           0.0000    0.0000    0.0000 N.am    1  UNL1       -0.2184
     17 C           0.0000    0.0000    0.0000 C.ar    1  UNL1        0.0597
     18 C           0.0000    0.0000    0.0000 C.ar    1  UNL1        0.0160
     19 C           0.0000    0.0000    0.0000 C.ar    1  UNL1        0.0115
     20 C           0.0000    0.0000    0.0000 C.ar    1  UNL1        0.0724
     21 C           0.0000    0.0000    0.0000 C.1     1  UNL1        0.1004
     22 N           0.0000    0.0000    0.0000 N.1     1  UNL1       -0.1908
     23 C           0.0000    0.0000    0.0000 C.ar    1  UNL1        0.0823
     24 C           0.0000    0.0000    0.0000 C.3     1  UNL1        0.4192
     25 F           0.0000    0.0000    0.0000 F       1  UNL1       -0.1658
     26 F           0.0000    0.0000    0.0000 F       1  UNL1       -0.1658
     27 F           0.0000    0.0000    0.0000 F       1  UNL1       -0.1658
     28 C           0.0000    0.0000    0.0000 C.ar    1  UNL1        0.0198
     29 C           0.0000    0.0000    0.0000 C.2     1  UNL1        0.2507
     30 O           0.0000    0.0000    0.0000 O.2     1  UNL1       -0.2724
     31 C           0.0000    0.0000    0.0000 C.3     1  UNL1        0.1327
     32 C           0.0000    0.0000    0.0000 C.3     1  UNL1        0.0296
     33 C           0.0000    0.0000    0.0000 C.3     1  UNL1        0.0296
     34 C           0.0000    0.0000    0.0000 C.ar    1  UNL1        0.0149
     35 C           0.0000    0.0000    0.0000 C.ar    1  UNL1        0.0013
     36 C           0.0000    0.0000    0.0000 C.ar    1  UNL1        0.0031
     37 C           0.0000    0.0000    0.0000 C.ar    1  UNL1        0.0369
@<TRIPOS>BOND
     1     1     2    1
     2     2     3    1
     3     3     4    1
     4     4     5    1
     5     5     6   ar
     6     6     7   ar
     7     7     8   ar
     8     8     9    1
     9     9    10   ar
    10    10    11   ar
    11    11    12   ar
    12    12    13    1
    13    13    14    1
    14    14    15    2
    15    14    16    1
    16    16    17    1
    17    17    18   ar
    18    18    19   ar
    19    19    20   ar
    20    20    21    1
    21    21    22    3
    22    20    23   ar
    23    23    24    1
    24    24    25    1
    25    24    26    1
    26    24    27    1
    27    23    28   ar
    28    17    28   ar
    29    16    29   am
    30    29    30    2
    31    29    31    1
    32    13    31    1
    33    31    32    1
    34    31    33    1
    35    12    34   ar
    36    34    35   ar
    37     9    35   ar
    38     8    36   ar
    39    36    37   ar
    40     5    37   ar
