@<TRIPOS>MOLECULE
*****
 24 25 0 0 0
SMALL
GASTEIGER

@<TRIPOS>ATOM
      1 C           0.0000    0.0000    0.0000 C.3     1  UNL1        0.1358
      2 N           0.0000    0.0000    0.0000 N.pl3   1  UNL1       -0.2119
      3 C           0.0000    0.0000    0.0000 C.3     1  UNL1        0.1145
      4 C           0.0000    0.0000    0.0000 C.3     1  UNL1        0.0466
      5 C           0.0000    0.0000    0.0000 C.3     1  UNL1        0.1173
      6 N           0.0000    0.0000    0.0000 N.am    1  UNL1       -0.2002
      7 C           0.0000    0.0000    0.0000 C.2     1  UNL1        0.2857
      8 O           0.0000    0.0000    0.0000 O.2     1  UNL1       -0.2666
      9 C           0.0000    0.0000    0.0000 C.ar    1  UNL1        0.1737
     10 N           0.0000    0.0000    0.0000 N.ar    1  UNL1       -0.1995
     11 C           0.0000    0.0000    0.0000 C.ar    1  UNL1        0.2852
     12 O           0.0000    0.0000    0.0000 O.2     1  UNL1       -0.4310
     13 C           0.0000    0.0000    0.0000 C.ar    1  UNL1        0.1694
     14 C           0.0000    0.0000    0.0000 C.ar    1  UNL1        0.0373
     15 C           0.0000    0.0000    0.0000 C.ar    1  UNL1        0.0063
     16 C           0.0000    0.0000    0.0000 C.ar    1  UNL1        0.0379
     17 C           0.0000    0.0000    0.0000 C.ar    1  UNL1        0.1492
     18 O           0.0000    0.0000    0.0000 O.3     1  UNL1       -0.4706
     19 C           0.0000    0.0000    0.0000 C.3     1  UNL1        0.2525
     20 C           0.0000    0.0000    0.0000 C.ar    1  UNL1        0.0916
     21 CL          0.0000    0.0000    0.0000 Cl      1  UNL1       -0.0791
     22 C           0.0000    0.0000    0.0000 C.ar    1  UNL1        0.0175
     23 N           0.0000    0.0000    0.0000 N.2     1  UNL1       -0.0560
     24 N           0.0000    0.0000    0.0000 N.2     1  UNL1       -0.0056
@<TRIPOS>BOND
     1     1     2    1
     2     2     3    1
     3     3     4    1
     4     4     5    1
     5     5     6    1
     6     6     7   am
     7     7     8    2
     8     7     9    1
     9     9    10   ar
    10    10    11   ar
    11    11    12   ar
    12    12    13   ar
    13     9    13   ar
    14    13    14    1
    15    14    15   ar
    16    15    16   ar
    17    16    17   ar
    18    17    18    1
    19    18    19    1
    20    17    20   ar
    21    20    21    1
    22    20    22   ar
    23    14    22   ar
    24     2    23    1
    25    23    24    2
