@<TRIPOS>MOLECULE
*****
 32 34 0 0 0
SMALL
GASTEIGER

@<TRIPOS>ATOM
      1 C           0.0000    0.0000    0.0000 C.3     1  UNL1        0.1816
      2 S           0.0000    0.0000    0.0000 S.O2    1  UNL1        0.0104
      3 O           0.0000    0.0000    0.0000 O.2     1  UNL1       -0.1686
      4 O           0.0000    0.0000    0.0000 O.2     1  UNL1       -0.1686
      5 C           0.0000    0.0000    0.0000 C.ar    1  UNL1        0.1055
      6 C           0.0000    0.0000    0.0000 C.ar    1  UNL1        0.0183
      7 C           0.0000    0.0000    0.0000 C.ar    1  UNL1        0.0010
      8 C           0.0000    0.0000    0.0000 C.ar    1  UNL1       -0.0025
      9 C           0.0000    0.0000    0.0000 C.ar    1  UNL1        0.0007
     10 C           0.0000    0.0000    0.0000 C.3     1  UNL1        0.1402
     11 N           0.0000    0.0000    0.0000 N.pl3   1  UNL1       -0.2154
     12 C           0.0000    0.0000    0.0000 C.ar    1  UNL1        0.1562
     13 N           0.0000    0.0000    0.0000 N.ar    1  UNL1       -0.1958
     14 C           0.0000    0.0000    0.0000 C.ar    1  UNL1        0.2420
     15 N           0.0000    0.0000    0.0000 N.pl3   1  UNL1       -0.1776
     16 C           0.0000    0.0000    0.0000 C.ar    1  UNL1        0.0736
     17 C           0.0000    0.0000    0.0000 C.ar    1  UNL1        0.0168
     18 C           0.0000    0.0000    0.0000 C.ar    1  UNL1        0.0060
     19 C           0.0000    0.0000    0.0000 C.ar    1  UNL1        0.0567
     20 C           0.0000    0.0000    0.0000 C.2     1  UNL1        0.2842
     21 N           0.0000    0.0000    0.0000 N.am    1  UNL1       -0.0837
     22 O           0.0000    0.0000    0.0000 O.2     1  UNL1       -0.2667
     23 C           0.0000    0.0000    0.0000 C.ar    1  UNL1        0.0060
     24 C           0.0000    0.0000    0.0000 C.ar    1  UNL1        0.0168
     25 N           0.0000    0.0000    0.0000 N.ar    1  UNL1       -0.2106
     26 C           0.0000    0.0000    0.0000 C.ar    1  UNL1        0.1086
     27 C           0.0000    0.0000    0.0000 C.ar    1  UNL1        0.1235
     28 C           0.0000    0.0000    0.0000 C.3     1  UNL1        0.4227
     29 F           0.0000    0.0000    0.0000 F       1  UNL1       -0.1657
     30 F           0.0000    0.0000    0.0000 F       1  UNL1       -0.1657
     31 F           0.0000    0.0000    0.0000 F       1  UNL1       -0.1657
     32 C           0.0000    0.0000    0.0000 C.ar    1  UNL1        0.0158
@<TRIPOS>BOND
     1     1     2    1
     2     2     3    2
     3     2     4    2
     4     2     5    1
     5     5     6   ar
     6     6     7   ar
     7     7     8   ar
     8     8     9   ar
     9     9    10    1
    10    10    11    1
    11    11    12    1
    12    12    13   ar
    13    13    14   ar
    14    14    15    1
    15    15    16    1
    16    16    17   ar
    17    17    18   ar
    18    18    19   ar
    19    19    20    1
    20    20    21   am
    21    20    22    2
    22    19    23   ar
    23    23    24   ar
    24    16    24   ar
    25    14    25   ar
    26    25    26   ar
    27    26    27   ar
    28    12    27   ar
    29    27    28    1
    30    28    29    1
    31    28    30    1
    32    28    31    1
    33     9    32   ar
    34     5    32   ar
