@<TRIPOS>MOLECULE
*****
 33 36 0 0 0
SMALL
GASTEIGER

@<TRIPOS>ATOM
      1 C           0.0000    0.0000    0.0000 C.3     1  UNL1        0.0177
      2 C           0.0000    0.0000    0.0000 C.3     1  UNL1        0.0626
      3 C           0.0000    0.0000    0.0000 C.3     1  UNL1        0.0436
      4 C           0.0000    0.0000    0.0000 C.ar    1  UNL1       -0.0042
      5 C           0.0000    0.0000    0.0000 C.ar    1  UNL1        0.0739
      6 N           0.0000    0.0000    0.0000 N.ar    1  UNL1       -0.2483
      7 C           0.0000    0.0000    0.0000 C.ar    1  UNL1        0.0807
      8 C           0.0000    0.0000    0.0000 C.ar    1  UNL1        0.0191
      9 C           0.0000    0.0000    0.0000 C.ar    1  UNL1        0.0015
     10 C           0.0000    0.0000    0.0000 C.ar    1  UNL1        0.0001
     11 C           0.0000    0.0000    0.0000 C.ar    1  UNL1        0.0012
     12 C           0.0000    0.0000    0.0000 C.ar    1  UNL1        0.0149
     13 C           0.0000    0.0000    0.0000 C.3     1  UNL1        0.1250
     14 C           0.0000    0.0000    0.0000 C.ar    1  UNL1        0.0530
     15 C           0.0000    0.0000    0.0000 C.ar    1  UNL1        0.1429
     16 F           0.0000    0.0000    0.0000 F       1  UNL1       -0.2043
     17 C           0.0000    0.0000    0.0000 C.ar    1  UNL1        0.0664
     18 C           0.0000    0.0000    0.0000 C.ar    1  UNL1        0.1430
     19 O           0.0000    0.0000    0.0000 O.3     1  UNL1       -0.4751
     20 C           0.0000    0.0000    0.0000 C.3     1  UNL1        0.2113
     21 C           0.0000    0.0000    0.0000 C.3     1  UNL1        0.1195
     22 C           0.0000    0.0000    0.0000 C.3     1  UNL1        0.3223
     23 F           0.0000    0.0000    0.0000 F       1  UNL1       -0.1983
     24 F           0.0000    0.0000    0.0000 F       1  UNL1       -0.1983
     25 C           0.0000    0.0000    0.0000 C.ar    1  UNL1        0.0664
     26 C           0.0000    0.0000    0.0000 C.ar    1  UNL1        0.1429
     27 F           0.0000    0.0000    0.0000 F       1  UNL1       -0.2043
     28 N           0.0000    0.0000    0.0000 N.3     1  UNL1       -0.2642
     29 C           0.0000    0.0000    0.0000 C.3     1  UNL1        0.1055
     30 C           0.0000    0.0000    0.0000 C.3     1  UNL1        0.1486
     31 C           0.0000    0.0000    0.0000 C.3     1  UNL1        0.0368
     32 C           0.0000    0.0000    0.0000 C.3     1  UNL1        0.0368
     33 F           0.0000    0.0000    0.0000 F       1  UNL1       -0.2386
@<TRIPOS>BOND
     1     1     2    1
     2     2     3    1
     3     3     4    1
     4     4     5   ar
     5     5     6   ar
     6     6     7   ar
     7     7     8   ar
     8     8     9   ar
     9     9    10   ar
    10    10    11   ar
    11    11    12   ar
    12     4    12   ar
    13     7    12   ar
    14     5    13    1
    15    13    14    1
    16    14    15   ar
    17    15    16    1
    18    15    17   ar
    19    17    18   ar
    20    18    19    1
    21    19    20    1
    22    20    21    1
    23    21    22    1
    24    22    23    1
    25    22    24    1
    26    18    25   ar
    27    25    26   ar
    28    14    26   ar
    29    26    27    1
    30    13    28    1
    31     2    28    1
    32    28    29    1
    33    29    30    1
    34    30    31    1
    35    30    32    1
    36    30    33    1
