@<TRIPOS>MOLECULE
*****
 35 39 0 0 0
SMALL
GASTEIGER

@<TRIPOS>ATOM
      1 C           0.0000    0.0000    0.0000 C.3     1  UNL1        0.0051
      2 C           0.0000    0.0000    0.0000 C.3     1  UNL1        0.0276
      3 C           0.0000    0.0000    0.0000 C.ar    1  UNL1       -0.0088
      4 C           0.0000    0.0000    0.0000 C.ar    1  UNL1       -0.0002
      5 C           0.0000    0.0000    0.0000 C.ar    1  UNL1        0.0351
      6 C           0.0000    0.0000    0.0000 C.ar    1  UNL1       -0.0133
      7 C           0.0000    0.0000    0.0000 C.ar    1  UNL1        0.0104
      8 C           0.0000    0.0000    0.0000 C.ar    1  UNL1        0.0435
      9 N           0.0000    0.0000    0.0000 N.pl3   1  UNL1       -0.3077
     10 C           0.0000    0.0000    0.0000 C.3     1  UNL1        0.0922
     11 C           0.0000    0.0000    0.0000 C.3     1  UNL1        0.0374
     12 C           0.0000    0.0000    0.0000 C.3     1  UNL1        0.0609
     13 N           0.0000    0.0000    0.0000 N.3     1  UNL1       -0.2738
     14 C           0.0000    0.0000    0.0000 C.3     1  UNL1        0.0721
     15 C           0.0000    0.0000    0.0000 C.3     1  UNL1        0.0188
     16 C           0.0000    0.0000    0.0000 C.3     1  UNL1        0.0721
     17 C           0.0000    0.0000    0.0000 C.3     1  UNL1        0.0188
     18 C           0.0000    0.0000    0.0000 C.3     1  UNL1        0.0374
     19 C           0.0000    0.0000    0.0000 C.3     1  UNL1        0.0922
     20 C           0.0000    0.0000    0.0000 C.3     1  UNL1        0.0545
     21 C           0.0000    0.0000    0.0000 C.3     1  UNL1        0.0103
     22 C           0.0000    0.0000    0.0000 C.3     1  UNL1        0.0103
     23 C           0.0000    0.0000    0.0000 C.ar    1  UNL1        0.0651
     24 N           0.0000    0.0000    0.0000 N.ar    1  UNL1       -0.2493
     25 C           0.0000    0.0000    0.0000 C.ar    1  UNL1        0.0817
     26 C           0.0000    0.0000    0.0000 C.ar    1  UNL1        0.0294
     27 C           0.0000    0.0000    0.0000 C.ar    1  UNL1        0.0699
     28 C           0.0000    0.0000    0.0000 C.1     1  UNL1        0.1005
     29 N           0.0000    0.0000    0.0000 N.1     1  UNL1       -0.1908
     30 C           0.0000    0.0000    0.0000 C.ar    1  UNL1        0.0104
     31 C           0.0000    0.0000    0.0000 C.ar    1  UNL1        0.0023
     32 C           0.0000    0.0000    0.0000 C.ar    1  UNL1        0.0219
     33 C           0.0000    0.0000    0.0000 C.ar    1  UNL1        0.0542
     34 C           0.0000    0.0000    0.0000 C.2     1  UNL1        0.1964
     35 O           0.0000    0.0000    0.0000 O.2     1  UNL1       -0.2865
@<TRIPOS>BOND
     1     1     2    1
     2     2     3    1
     3     3     4   ar
     4     4     5   ar
     5     5     6   ar
     6     6     7   ar
     7     7     8   ar
     8     3     8   ar
     9     8     9    1
    10     9    10    1
    11    10    11    1
    12    11    12    1
    13    12    13    1
    14    13    14    1
    15    14    15    1
    16    13    16    1
    17    16    17    1
    18    12    18    1
    19    18    19    1
    20     9    19    1
    21     6    20    1
    22    20    21    1
    23    20    22    1
    24    20    23    1
    25    23    24   ar
    26    24    25   ar
    27    25    26   ar
    28    26    27   ar
    29    27    28    1
    30    28    29    3
    31    27    30   ar
    32    30    31   ar
    33    31    32   ar
    34    25    32   ar
    35    32    33   ar
    36    23    33   ar
    37    33    34    1
    38     5    34    1
    39    34    35    2
