@<TRIPOS>MOLECULE
*****
 22 24 0 0 0
SMALL
GASTEIGER

@<TRIPOS>ATOM
      1 C           0.0000    0.0000    0.0000 C.3     1  UNL1        0.2524
      2 O           0.0000    0.0000    0.0000 O.3     1  UNL1       -0.4720
      3 C           0.0000    0.0000    0.0000 C.ar    1  UNL1        0.1334
      4 C           0.0000    0.0000    0.0000 C.ar    1  UNL1        0.0309
      5 C           0.0000    0.0000    0.0000 C.3     1  UNL1        0.0358
      6 C           0.0000    0.0000    0.0000 C.ar    1  UNL1        0.0972
      7 N           0.0000    0.0000    0.0000 N.ar    1  UNL1       -0.2467
      8 C           0.0000    0.0000    0.0000 C.ar    1  UNL1        0.0808
      9 C           0.0000    0.0000    0.0000 C.3     1  UNL1        0.1529
     10 N           0.0000    0.0000    0.0000 N.ar    1  UNL1       -0.3055
     11 C           0.0000    0.0000    0.0000 C.ar    1  UNL1        0.0775
     12 C           0.0000    0.0000    0.0000 C.ar    1  UNL1        0.0241
     13 C           0.0000    0.0000    0.0000 C.ar    1  UNL1        0.0643
     14 C           0.0000    0.0000    0.0000 C.ar    1  UNL1        0.1442
     15 CL          0.0000    0.0000    0.0000 Cl      1  UNL1       -0.0611
     16 N           0.0000    0.0000    0.0000 N.ar    1  UNL1       -0.1994
     17 C           0.0000    0.0000    0.0000 C.ar    1  UNL1        0.2587
     18 N           0.0000    0.0000    0.0000 N.pl3   1  UNL1       -0.0860
     19 N           0.0000    0.0000    0.0000 N.ar    1  UNL1       -0.1936
     20 C           0.0000    0.0000    0.0000 C.ar    1  UNL1        0.1494
     21 C           0.0000    0.0000    0.0000 C.ar    1  UNL1        0.0273
     22 C           0.0000    0.0000    0.0000 C.3     1  UNL1        0.0355
@<TRIPOS>BOND
     1     1     2    1
     2     2     3    1
     3     3     4   ar
     4     4     5    1
     5     4     6   ar
     6     6     7   ar
     7     7     8   ar
     8     8     9    1
     9     9    10    1
    10    10    11   ar
    11    11    12   ar
    12    12    13   ar
    13    13    14   ar
    14    14    15    1
    15    14    16   ar
    16    16    17   ar
    17    17    18    1
    18    17    19   ar
    19    19    20   ar
    20    13    20   ar
    21    10    20   ar
    22     8    21   ar
    23     3    21   ar
    24    21    22    1
