@<TRIPOS>MOLECULE
*****
 27 29 0 0 0
SMALL
GASTEIGER

@<TRIPOS>ATOM
      1 C           0.0000    0.0000    0.0000 C.3     1  UNL1        0.0322
      2 C           0.0000    0.0000    0.0000 C.2     1  UNL1       -0.0061
      3 C           0.0000    0.0000    0.0000 C.2     1  UNL1        0.1032
      4 N           0.0000    0.0000    0.0000 N.pl3   1  UNL1       -0.1749
      5 C           0.0000    0.0000    0.0000 C.ar    1  UNL1        0.2422
      6 N           0.0000    0.0000    0.0000 N.ar    1  UNL1       -0.2092
      7 C           0.0000    0.0000    0.0000 C.ar    1  UNL1        0.1196
      8 C           0.0000    0.0000    0.0000 C.ar    1  UNL1        0.1052
      9 C           0.0000    0.0000    0.0000 C.ar    1  UNL1        0.1502
     10 N           0.0000    0.0000    0.0000 N.ar    1  UNL1       -0.1959
     11 N           0.0000    0.0000    0.0000 N.pl3   1  UNL1       -0.2875
     12 C           0.0000    0.0000    0.0000 C.3     1  UNL1        0.0746
     13 C           0.0000    0.0000    0.0000 C.3     1  UNL1        0.0198
     14 C           0.0000    0.0000    0.0000 C.3     1  UNL1        0.0018
     15 C           0.0000    0.0000    0.0000 C.3     1  UNL1        0.0018
     16 C           0.0000    0.0000    0.0000 C.3     1  UNL1        0.0198
     17 C           0.0000    0.0000    0.0000 C.3     1  UNL1        0.1513
     18 C           0.0000    0.0000    0.0000 C.3     1  UNL1        0.0292
     19 C           0.0000    0.0000    0.0000 C.3     1  UNL1        0.0023
     20 C           0.0000    0.0000    0.0000 C.2     1  UNL1        0.2475
     21 O           0.0000    0.0000    0.0000 O.2     1  UNL1       -0.2727
     22 N           0.0000    0.0000    0.0000 N.am    1  UNL1       -0.2519
     23 C           0.0000    0.0000    0.0000 C.3     1  UNL1        0.1202
     24 C           0.0000    0.0000    0.0000 C.2     1  UNL1        0.1537
     25 C           0.0000    0.0000    0.0000 C.2     1  UNL1        0.0414
     26 O           0.0000    0.0000    0.0000 O.2     1  UNL1       -0.4701
     27 C           0.0000    0.0000    0.0000 C.3     1  UNL1        0.2525
@<TRIPOS>BOND
     1     1     2    1
     2     2     3    2
     3     3     4    1
     4     4     5    1
     5     5     6   ar
     6     6     7   ar
     7     7     8   ar
     8     8     9   ar
     9     9    10   ar
    10     5    10   ar
    11     9    11    1
    12    11    12    1
    13    12    13    1
    14    13    14    1
    15    14    15    1
    16    15    16    1
    17    12    16    1
    18    11    17    1
    19    17    18    1
    20    18    19    1
    21    17    20    1
    22    20    21    2
    23    20    22   am
    24     8    22    1
    25    22    23    1
    26     3    24    1
    27    24    25    2
    28    24    26    1
    29    26    27    1
