@<TRIPOS>MOLECULE
*****
 34 38 0 0 0
SMALL
GASTEIGER

@<TRIPOS>ATOM
      1 C           0.0000    0.0000    0.0000 C.3     1  UNL1        0.0379
      2 C           0.0000    0.0000    0.0000 C.ar    1  UNL1        0.0051
      3 C           0.0000    0.0000    0.0000 C.ar    1  UNL1       -0.0165
      4 C           0.0000    0.0000    0.0000 C.3     1  UNL1        0.0313
      5 C           0.0000    0.0000    0.0000 C.ar    1  UNL1        0.0359
      6 C           0.0000    0.0000    0.0000 C.ar    1  UNL1        0.0970
      7 S           0.0000    0.0000    0.0000 S.2     1  UNL1       -0.0740
      8 N           0.0000    0.0000    0.0000 N.ar    1  UNL1       -0.2736
      9 C           0.0000    0.0000    0.0000 C.ar    1  UNL1        0.1477
     10 C           0.0000    0.0000    0.0000 C.3     1  UNL1        0.0742
     11 N           0.0000    0.0000    0.0000 N.ar    1  UNL1       -0.1332
     12 N           0.0000    0.0000    0.0000 N.ar    1  UNL1       -0.1313
     13 C           0.0000    0.0000    0.0000 C.ar    1  UNL1        0.1701
     14 C           0.0000    0.0000    0.0000 C.3     1  UNL1        0.1708
     15 C           0.0000    0.0000    0.0000 C.3     1  UNL1        0.1192
     16 C           0.0000    0.0000    0.0000 C.2     1  UNL1        0.2480
     17 O           0.0000    0.0000    0.0000 O.2     1  UNL1       -0.2729
     18 N           0.0000    0.0000    0.0000 N.am    1  UNL1       -0.1791
     19 C           0.0000    0.0000    0.0000 C.ar    1  UNL1        0.0736
     20 C           0.0000    0.0000    0.0000 C.ar    1  UNL1        0.0199
     21 C           0.0000    0.0000    0.0000 C.ar    1  UNL1        0.0434
     22 C           0.0000    0.0000    0.0000 C.ar    1  UNL1        0.1958
     23 O           0.0000    0.0000    0.0000 O.3     1  UNL1       -0.2866
     24 C           0.0000    0.0000    0.0000 C.ar    1  UNL1        0.0434
     25 C           0.0000    0.0000    0.0000 C.ar    1  UNL1        0.0199
     26 N           0.0000    0.0000    0.0000 N.2     1  UNL1       -0.2641
     27 C           0.0000    0.0000    0.0000 C.2     1  UNL1        0.0780
     28 C           0.0000    0.0000    0.0000 C.ar    1  UNL1        0.0174
     29 C           0.0000    0.0000    0.0000 C.ar    1  UNL1        0.0023
     30 C           0.0000    0.0000    0.0000 C.ar    1  UNL1        0.0114
     31 C           0.0000    0.0000    0.0000 C.ar    1  UNL1        0.0577
     32 CL          0.0000    0.0000    0.0000 Cl      1  UNL1       -0.0822
     33 C           0.0000    0.0000    0.0000 C.ar    1  UNL1        0.0114
     34 C           0.0000    0.0000    0.0000 C.ar    1  UNL1        0.0023
@<TRIPOS>BOND
     1     1     2    1
     2     2     3   ar
     3     3     4    1
     4     3     5   ar
     5     5     6   ar
     6     6     7   ar
     7     2     7   ar
     8     6     8    1
     9     8     9   ar
    10     9    10    1
    11     9    11   ar
    12    11    12   ar
    13    12    13   ar
    14     8    13   ar
    15    13    14    1
    16    14    15    1
    17    15    16    1
    18    16    17    2
    19    16    18   am
    20    18    19    1
    21    19    20   ar
    22    20    21   ar
    23    21    22   ar
    24    22    23    1
    25    22    24   ar
    26    24    25   ar
    27    19    25   ar
    28    14    26    1
    29    26    27    2
    30     5    27    1
    31    27    28    1
    32    28    29   ar
    33    29    30   ar
    34    30    31   ar
    35    31    32    1
    36    31    33   ar
    37    33    34   ar
    38    28    34   ar
