@<TRIPOS>MOLECULE
*****
 29 31 0 0 0
SMALL
GASTEIGER

@<TRIPOS>ATOM
      1 C           0.0000    0.0000    0.0000 C.3     1  UNL1        0.2526
      2 O           0.0000    0.0000    0.0000 O.3     1  UNL1       -0.4684
      3 C           0.0000    0.0000    0.0000 C.ar    1  UNL1        0.1730
      4 C           0.0000    0.0000    0.0000 C.ar    1  UNL1        0.0401
      5 C           0.0000    0.0000    0.0000 C.ar    1  UNL1        0.0039
      6 C           0.0000    0.0000    0.0000 C.2     1  UNL1        0.0113
      7 C           0.0000    0.0000    0.0000 C.2     1  UNL1        0.0891
      8 S           0.0000    0.0000    0.0000 S.3     1  UNL1       -0.0236
      9 C           0.0000    0.0000    0.0000 C.2     1  UNL1        0.3031
     10 O           0.0000    0.0000    0.0000 O.2     1  UNL1       -0.2604
     11 N           0.0000    0.0000    0.0000 N.am    1  UNL1       -0.1309
     12 C           0.0000    0.0000    0.0000 C.2     1  UNL1        0.2781
     13 O           0.0000    0.0000    0.0000 O.2     1  UNL1       -0.2674
     14 C           0.0000    0.0000    0.0000 C.ar    1  UNL1        0.0034
     15 C           0.0000    0.0000    0.0000 C.ar    1  UNL1        0.0406
     16 C           0.0000    0.0000    0.0000 C.ar    1  UNL1        0.1789
     17 O           0.0000    0.0000    0.0000 O.3     1  UNL1       -0.4505
     18 C           0.0000    0.0000    0.0000 C.ar    1  UNL1        0.1493
     19 C           0.0000    0.0000    0.0000 C.ar    1  UNL1        0.0381
     20 C           0.0000    0.0000    0.0000 C.ar    1  UNL1        0.0134
     21 C           0.0000    0.0000    0.0000 C.ar    1  UNL1        0.0686
     22 C           0.0000    0.0000    0.0000 C.1     1  UNL1        0.1004
     23 N           0.0000    0.0000    0.0000 N.1     1  UNL1       -0.1908
     24 C           0.0000    0.0000    0.0000 C.ar    1  UNL1        0.0172
     25 C           0.0000    0.0000    0.0000 C.ar    1  UNL1        0.1065
     26 C           0.0000    0.0000    0.0000 C.3     1  UNL1        0.4214
     27 F           0.0000    0.0000    0.0000 F       1  UNL1       -0.1657
     28 F           0.0000    0.0000    0.0000 F       1  UNL1       -0.1657
     29 F           0.0000    0.0000    0.0000 F       1  UNL1       -0.1657
@<TRIPOS>BOND
     1     1     2    1
     2     2     3    1
     3     3     4   ar
     4     4     5   ar
     5     5     6    1
     6     6     7    2
     7     7     8    1
     8     8     9    1
     9     9    10    2
    10     9    11   am
    11    11    12   am
    12     7    12    1
    13    12    13    2
    14     5    14   ar
    15    14    15   ar
    16    15    16   ar
    17     3    16   ar
    18    16    17    1
    19    17    18    1
    20    18    19   ar
    21    19    20   ar
    22    20    21   ar
    23    21    22    1
    24    22    23    3
    25    21    24   ar
    26    24    25   ar
    27    18    25   ar
    28    25    26    1
    29    26    27    1
    30    26    28    1
    31    26    29    1
