@<TRIPOS>MOLECULE
*****
 22 24 0 0 0
SMALL
GASTEIGER

@<TRIPOS>ATOM
      1 C           0.0000    0.0000    0.0000 C.3     1  UNL1        0.0379
      2 C           0.0000    0.0000    0.0000 C.ar    1  UNL1        0.0051
      3 S           0.0000    0.0000    0.0000 S.2     1  UNL1       -0.0740
      4 C           0.0000    0.0000    0.0000 C.ar    1  UNL1        0.0973
      5 N           0.0000    0.0000    0.0000 N.ar    1  UNL1       -0.2692
      6 C           0.0000    0.0000    0.0000 C.ar    1  UNL1        0.2070
      7 N           0.0000    0.0000    0.0000 N.ar    1  UNL1       -0.1255
      8 N           0.0000    0.0000    0.0000 N.ar    1  UNL1       -0.1329
      9 C           0.0000    0.0000    0.0000 C.ar    1  UNL1        0.1479
     10 C           0.0000    0.0000    0.0000 C.3     1  UNL1        0.0742
     11 C           0.0000    0.0000    0.0000 C.ar    1  UNL1        0.0380
     12 C           0.0000    0.0000    0.0000 C.2     1  UNL1        0.1044
     13 N           0.0000    0.0000    0.0000 N.2     1  UNL1       -0.1479
     14 C           0.0000    0.0000    0.0000 C.ar    1  UNL1        0.0195
     15 C           0.0000    0.0000    0.0000 C.ar    1  UNL1        0.0024
     16 C           0.0000    0.0000    0.0000 C.ar    1  UNL1        0.0114
     17 C           0.0000    0.0000    0.0000 C.ar    1  UNL1        0.0577
     18 CL          0.0000    0.0000    0.0000 Cl      1  UNL1       -0.0822
     19 C           0.0000    0.0000    0.0000 C.ar    1  UNL1        0.0114
     20 C           0.0000    0.0000    0.0000 C.ar    1  UNL1        0.0024
     21 C           0.0000    0.0000    0.0000 C.ar    1  UNL1       -0.0164
     22 C           0.0000    0.0000    0.0000 C.3     1  UNL1        0.0313
@<TRIPOS>BOND
     1     1     2    1
     2     2     3   ar
     3     3     4   ar
     4     4     5    1
     5     5     6   ar
     6     6     7   ar
     7     7     8   ar
     8     8     9   ar
     9     5     9   ar
    10     9    10    1
    11     4    11   ar
    12    11    12    1
    13    12    13    2
    14    12    14    1
    15    14    15   ar
    16    15    16   ar
    17    16    17   ar
    18    17    18    1
    19    17    19   ar
    20    19    20   ar
    21    14    20   ar
    22    11    21   ar
    23     2    21   ar
    24    21    22    1
