@<TRIPOS>MOLECULE
*****
 31 32 0 0 0
SMALL
GASTEIGER

@<TRIPOS>ATOM
      1 C           0.0000    0.0000    0.0000 C.3     1  UNL1        0.2526
      2 O           0.0000    0.0000    0.0000 O.3     1  UNL1       -0.4684
      3 C           0.0000    0.0000    0.0000 C.ar    1  UNL1        0.1724
      4 C           0.0000    0.0000    0.0000 C.ar    1  UNL1        0.0401
      5 C           0.0000    0.0000    0.0000 C.ar    1  UNL1        0.0040
      6 C           0.0000    0.0000    0.0000 C.2     1  UNL1        0.0151
      7 C           0.0000    0.0000    0.0000 C.2     1  UNL1        0.1249
      8 C           0.0000    0.0000    0.0000 C.1     1  UNL1        0.1051
      9 N           0.0000    0.0000    0.0000 N.1     1  UNL1       -0.1907
     10 C           0.0000    0.0000    0.0000 C.2     1  UNL1        0.2939
     11 N           0.0000    0.0000    0.0000 N.am    1  UNL1       -0.0831
     12 O           0.0000    0.0000    0.0000 O.2     1  UNL1       -0.2659
     13 C           0.0000    0.0000    0.0000 C.ar    1  UNL1        0.0033
     14 C           0.0000    0.0000    0.0000 C.ar    1  UNL1        0.0401
     15 C           0.0000    0.0000    0.0000 C.ar    1  UNL1        0.1727
     16 O           0.0000    0.0000    0.0000 O.3     1  UNL1       -0.4676
     17 C           0.0000    0.0000    0.0000 C.3     1  UNL1        0.2321
     18 C           0.0000    0.0000    0.0000 C.ar    1  UNL1        0.0250
     19 C           0.0000    0.0000    0.0000 C.ar    1  UNL1       -0.0008
     20 C           0.0000    0.0000    0.0000 C.ar    1  UNL1        0.0036
     21 C           0.0000    0.0000    0.0000 C.ar    1  UNL1        0.0714
     22 C           0.0000    0.0000    0.0000 C.3     1  UNL1        0.4186
     23 F           0.0000    0.0000    0.0000 F       1  UNL1       -0.1659
     24 F           0.0000    0.0000    0.0000 F       1  UNL1       -0.1659
     25 F           0.0000    0.0000    0.0000 F       1  UNL1       -0.1659
     26 C           0.0000    0.0000    0.0000 C.ar    1  UNL1        0.0075
     27 C           0.0000    0.0000    0.0000 C.ar    1  UNL1        0.0709
     28 C           0.0000    0.0000    0.0000 C.3     1  UNL1        0.4184
     29 F           0.0000    0.0000    0.0000 F       1  UNL1       -0.1659
     30 F           0.0000    0.0000    0.0000 F       1  UNL1       -0.1659
     31 F           0.0000    0.0000    0.0000 F       1  UNL1       -0.1659
@<TRIPOS>BOND
     1     1     2    1
     2     2     3    1
     3     3     4   ar
     4     4     5   ar
     5     5     6    1
     6     6     7    2
     7     7     8    1
     8     8     9    3
     9     7    10    1
    10    10    11   am
    11    10    12    2
    12     5    13   ar
    13    13    14   ar
    14    14    15   ar
    15     3    15   ar
    16    15    16    1
    17    16    17    1
    18    17    18    1
    19    18    19   ar
    20    19    20   ar
    21    20    21   ar
    22    21    22    1
    23    22    23    1
    24    22    24    1
    25    22    25    1
    26    21    26   ar
    27    26    27   ar
    28    18    27   ar
    29    27    28    1
    30    28    29    1
    31    28    30    1
    32    28    31    1
