@<TRIPOS>MOLECULE
*****
 38 42 0 0 0
SMALL
GASTEIGER

@<TRIPOS>ATOM
      1 C           0.0000    0.0000    0.0000 C.3     1  UNL1        0.2526
      2 O           0.0000    0.0000    0.0000 O.3     1  UNL1       -0.4683
      3 C           0.0000    0.0000    0.0000 C.ar    1  UNL1        0.1739
      4 C           0.0000    0.0000    0.0000 C.ar    1  UNL1        0.0592
      5 C           0.0000    0.0000    0.0000 C.ar    1  UNL1        0.0875
      6 N           0.0000    0.0000    0.0000 N.ar    1  UNL1       -0.2435
      7 C           0.0000    0.0000    0.0000 C.ar    1  UNL1        0.1020
      8 C           0.0000    0.0000    0.0000 C.ar    1  UNL1        0.0581
      9 C           0.0000    0.0000    0.0000 C.ar    1  UNL1        0.1484
     10 O           0.0000    0.0000    0.0000 O.3     1  UNL1       -0.4511
     11 C           0.0000    0.0000    0.0000 C.ar    1  UNL1        0.1726
     12 C           0.0000    0.0000    0.0000 C.ar    1  UNL1        0.0412
     13 C           0.0000    0.0000    0.0000 C.ar    1  UNL1        0.0199
     14 C           0.0000    0.0000    0.0000 C.ar    1  UNL1        0.0758
     15 N           0.0000    0.0000    0.0000 N.am    1  UNL1       -0.1788
     16 C           0.0000    0.0000    0.0000 C.2     1  UNL1        0.2530
     17 O           0.0000    0.0000    0.0000 O.2     1  UNL1       -0.2725
     18 C           0.0000    0.0000    0.0000 C.3     1  UNL1        0.1411
     19 C           0.0000    0.0000    0.0000 C.2     1  UNL1        0.2530
     20 O           0.0000    0.0000    0.0000 O.2     1  UNL1       -0.2725
     21 N           0.0000    0.0000    0.0000 N.am    1  UNL1       -0.1788
     22 C           0.0000    0.0000    0.0000 C.ar    1  UNL1        0.0735
     23 C           0.0000    0.0000    0.0000 C.ar    1  UNL1        0.0189
     24 C           0.0000    0.0000    0.0000 C.ar    1  UNL1        0.0310
     25 C           0.0000    0.0000    0.0000 C.ar    1  UNL1        0.1402
     26 F           0.0000    0.0000    0.0000 F       1  UNL1       -0.2042
     27 C           0.0000    0.0000    0.0000 C.ar    1  UNL1        0.0310
     28 C           0.0000    0.0000    0.0000 C.ar    1  UNL1        0.0189
     29 C           0.0000    0.0000    0.0000 C.3     1  UNL1        0.0185
     30 C           0.0000    0.0000    0.0000 C.3     1  UNL1        0.0185
     31 C           0.0000    0.0000    0.0000 C.ar    1  UNL1        0.0494
     32 C           0.0000    0.0000    0.0000 C.ar    1  UNL1        0.1757
     33 F           0.0000    0.0000    0.0000 F       1  UNL1       -0.2009
     34 C           0.0000    0.0000    0.0000 C.ar    1  UNL1        0.0554
     35 C           0.0000    0.0000    0.0000 C.ar    1  UNL1        0.0446
     36 C           0.0000    0.0000    0.0000 C.ar    1  UNL1        0.1726
     37 O           0.0000    0.0000    0.0000 O.3     1  UNL1       -0.4684
     38 C           0.0000    0.0000    0.0000 C.3     1  UNL1        0.2526
@<TRIPOS>BOND
     1     1     2    1
     2     2     3    1
     3     3     4   ar
     4     4     5   ar
     5     5     6   ar
     6     6     7   ar
     7     7     8   ar
     8     8     9   ar
     9     9    10    1
    10    10    11    1
    11    11    12   ar
    12    12    13   ar
    13    13    14   ar
    14    14    15    1
    15    15    16   am
    16    16    17    2
    17    16    18    1
    18    18    19    1
    19    19    20    2
    20    19    21   am
    21    21    22    1
    22    22    23   ar
    23    23    24   ar
    24    24    25   ar
    25    25    26    1
    26    25    27   ar
    27    27    28   ar
    28    22    28   ar
    29    18    29    1
    30    29    30    1
    31    18    30    1
    32    14    31   ar
    33    31    32   ar
    34    11    32   ar
    35    32    33    1
    36     9    34   ar
    37     5    34   ar
    38    34    35   ar
    39    35    36   ar
    40     3    36   ar
    41    36    37    1
    42    37    38    1
