@<TRIPOS>MOLECULE
*****
 29 32 0 0 0
SMALL
GASTEIGER

@<TRIPOS>ATOM
      1 C           0.0000    0.0000    0.0000 C.3     1  UNL1        0.0964
      2 C           0.0000    0.0000    0.0000 C.2     1  UNL1        0.2419
      3 O           0.0000    0.0000    0.0000 O.2     1  UNL1       -0.2733
      4 N           0.0000    0.0000    0.0000 N.am    1  UNL1       -0.2036
      5 C           0.0000    0.0000    0.0000 C.3     1  UNL1        0.1371
      6 C           0.0000    0.0000    0.0000 C.3     1  UNL1        0.1249
      7 N           0.0000    0.0000    0.0000 N.am    1  UNL1       -0.2211
      8 C           0.0000    0.0000    0.0000 C.2     1  UNL1        0.2550
      9 O           0.0000    0.0000    0.0000 O.2     1  UNL1       -0.2695
     10 C           0.0000    0.0000    0.0000 C.ar    1  UNL1        0.0541
     11 C           0.0000    0.0000    0.0000 C.ar    1  UNL1        0.0045
     12 C           0.0000    0.0000    0.0000 C.ar    1  UNL1        0.0002
     13 C           0.0000    0.0000    0.0000 C.ar    1  UNL1        0.0005
     14 C           0.0000    0.0000    0.0000 C.ar    1  UNL1        0.0063
     15 C           0.0000    0.0000    0.0000 C.ar    1  UNL1        0.0294
     16 S           0.0000    0.0000    0.0000 S.3     1  UNL1       -0.0869
     17 C           0.0000    0.0000    0.0000 C.ar    1  UNL1        0.0295
     18 C           0.0000    0.0000    0.0000 C.ar    1  UNL1        0.0070
     19 C           0.0000    0.0000    0.0000 C.ar    1  UNL1        0.0072
     20 C           0.0000    0.0000    0.0000 C.ar    1  UNL1        0.0346
     21 BR          0.0000    0.0000    0.0000 Br      1  UNL1       -0.0490
     22 C           0.0000    0.0000    0.0000 C.ar    1  UNL1        0.0072
     23 C           0.0000    0.0000    0.0000 C.ar    1  UNL1        0.0070
     24 C           0.0000    0.0000    0.0000 C.ar    1  UNL1        0.0066
     25 C           0.0000    0.0000    0.0000 C.ar    1  UNL1        0.0050
     26 C           0.0000    0.0000    0.0000 C.ar    1  UNL1        0.0542
     27 C           0.0000    0.0000    0.0000 C.ar    1  UNL1        0.0092
     28 C           0.0000    0.0000    0.0000 C.2     1  UNL1        0.2550
     29 O           0.0000    0.0000    0.0000 O.2     1  UNL1       -0.2695
@<TRIPOS>BOND
     1     1     2    1
     2     2     3    2
     3     2     4   am
     4     4     5    1
     5     5     6    1
     6     6     7    1
     7     7     8   am
     8     8     9    2
     9     8    10    1
    10    10    11   ar
    11    11    12   ar
    12    12    13   ar
    13    13    14   ar
    14    14    15   ar
    15    15    16    1
    16    16    17    1
    17    17    18   ar
    18    18    19   ar
    19    19    20   ar
    20    20    21    1
    21    20    22   ar
    22    22    23   ar
    23    17    23   ar
    24    15    24   ar
    25    24    25   ar
    26    25    26   ar
    27    26    27   ar
    28    10    27   ar
    29    14    27   ar
    30    26    28    1
    31     7    28   am
    32    28    29    2
