@<TRIPOS>MOLECULE
*****
 25 28 0 0 0
SMALL
GASTEIGER

@<TRIPOS>ATOM
      1 C           0.0000    0.0000    0.0000 C.3     1  UNL1        0.0177
      2 C           0.0000    0.0000    0.0000 C.3     1  UNL1        0.0626
      3 C           0.0000    0.0000    0.0000 C.3     1  UNL1        0.0436
      4 C           0.0000    0.0000    0.0000 C.ar    1  UNL1       -0.0042
      5 C           0.0000    0.0000    0.0000 C.ar    1  UNL1        0.0738
      6 N           0.0000    0.0000    0.0000 N.ar    1  UNL1       -0.2483
      7 C           0.0000    0.0000    0.0000 C.ar    1  UNL1        0.0807
      8 C           0.0000    0.0000    0.0000 C.ar    1  UNL1        0.0191
      9 C           0.0000    0.0000    0.0000 C.ar    1  UNL1        0.0015
     10 C           0.0000    0.0000    0.0000 C.ar    1  UNL1        0.0001
     11 C           0.0000    0.0000    0.0000 C.ar    1  UNL1        0.0012
     12 C           0.0000    0.0000    0.0000 C.ar    1  UNL1        0.0149
     13 C           0.0000    0.0000    0.0000 C.3     1  UNL1        0.1236
     14 C           0.0000    0.0000    0.0000 C.ar    1  UNL1        0.0362
     15 C           0.0000    0.0000    0.0000 C.ar    1  UNL1        0.0996
     16 N           0.0000    0.0000    0.0000 N.ar    1  UNL1       -0.2227
     17 C           0.0000    0.0000    0.0000 C.ar    1  UNL1        0.1989
     18 N           0.0000    0.0000    0.0000 N.ar    1  UNL1       -0.2227
     19 C           0.0000    0.0000    0.0000 C.ar    1  UNL1        0.0996
     20 N           0.0000    0.0000    0.0000 N.3     1  UNL1       -0.2643
     21 C           0.0000    0.0000    0.0000 C.3     1  UNL1        0.1055
     22 C           0.0000    0.0000    0.0000 C.3     1  UNL1        0.1486
     23 C           0.0000    0.0000    0.0000 C.3     1  UNL1        0.0368
     24 C           0.0000    0.0000    0.0000 C.3     1  UNL1        0.0368
     25 F           0.0000    0.0000    0.0000 F       1  UNL1       -0.2386
@<TRIPOS>BOND
     1     1     2    1
     2     2     3    1
     3     3     4    1
     4     4     5   ar
     5     5     6   ar
     6     6     7   ar
     7     7     8   ar
     8     8     9   ar
     9     9    10   ar
    10    10    11   ar
    11    11    12   ar
    12     4    12   ar
    13     7    12   ar
    14     5    13    1
    15    13    14    1
    16    14    15   ar
    17    15    16   ar
    18    16    17   ar
    19    17    18   ar
    20    18    19   ar
    21    14    19   ar
    22    13    20    1
    23     2    20    1
    24    20    21    1
    25    21    22    1
    26    22    23    1
    27    22    24    1
    28    22    25    1
