@<TRIPOS>MOLECULE
*****
 61 66 0 0 0
SMALL
GASTEIGER

@<TRIPOS>ATOM
      1 C           0.0000    0.0000    0.0000 C.3     1  UNL1        0.1075
      2 N           0.0000    0.0000    0.0000 N.3     1  UNL1       -0.2165
      3 C           0.0000    0.0000    0.0000 C.3     1  UNL1        0.0905
      4 C           0.0000    0.0000    0.0000 C.3     1  UNL1        0.0413
      5 C           0.0000    0.0000    0.0000 C.3     1  UNL1        0.1050
      6 C           0.0000    0.0000    0.0000 C.3     1  UNL1        0.0837
      7 S           0.0000    0.0000    0.0000 S.3     1  UNL1       -0.1119
      8 C           0.0000    0.0000    0.0000 C.ar    1  UNL1        0.0253
      9 C           0.0000    0.0000    0.0000 C.ar    1  UNL1        0.0061
     10 C           0.0000    0.0000    0.0000 C.ar    1  UNL1        0.0005
     11 C           0.0000    0.0000    0.0000 C.ar    1  UNL1        0.0000
     12 C           0.0000    0.0000    0.0000 C.ar    1  UNL1        0.0005
     13 C           0.0000    0.0000    0.0000 C.ar    1  UNL1        0.0061
     14 N           0.0000    0.0000    0.0000 N.pl3   1  UNL1       -0.2371
     15 C           0.0000    0.0000    0.0000 C.ar    1  UNL1        0.0827
     16 C           0.0000    0.0000    0.0000 C.ar    1  UNL1        0.0188
     17 C           0.0000    0.0000    0.0000 C.ar    1  UNL1        0.0217
     18 C           0.0000    0.0000    0.0000 C.ar    1  UNL1        0.1285
     19 S           0.0000    0.0000    0.0000 S.O2    1  UNL1        0.0957
     20 O           0.0000    0.0000    0.0000 O.2     1  UNL1       -0.1482
     21 O           0.0000    0.0000    0.0000 O.2     1  UNL1       -0.1482
     22 N           0.0000    0.0000    0.0000 N.am    1  UNL1       -0.0549
     23 C           0.0000    0.0000    0.0000 C.2     1  UNL1        0.2857
     24 O           0.0000    0.0000    0.0000 O.2     1  UNL1       -0.2667
     25 C           0.0000    0.0000    0.0000 C.ar    1  UNL1        0.0567
     26 C           0.0000    0.0000    0.0000 C.ar    1  UNL1        0.0059
     27 C           0.0000    0.0000    0.0000 C.ar    1  UNL1        0.0147
     28 C           0.0000    0.0000    0.0000 C.ar    1  UNL1        0.0479
     29 N           0.0000    0.0000    0.0000 N.pl3   1  UNL1       -0.3046
     30 C           0.0000    0.0000    0.0000 C.3     1  UNL1        0.1081
     31 C           0.0000    0.0000    0.0000 C.3     1  UNL1        0.0941
     32 N           0.0000    0.0000    0.0000 N.3     1  UNL1       -0.2663
     33 C           0.0000    0.0000    0.0000 C.3     1  UNL1        0.0946
     34 C           0.0000    0.0000    0.0000 C.2     1  UNL1       -0.0323
     35 C           0.0000    0.0000    0.0000 C.2     1  UNL1       -0.0288
     36 C           0.0000    0.0000    0.0000 C.ar    1  UNL1       -0.0045
     37 C           0.0000    0.0000    0.0000 C.ar    1  UNL1        0.0005
     38 C           0.0000    0.0000    0.0000 C.ar    1  UNL1        0.0114
     39 C           0.0000    0.0000    0.0000 C.ar    1  UNL1        0.0577
     40 CL          0.0000    0.0000    0.0000 Cl      1  UNL1       -0.0822
     41 C           0.0000    0.0000    0.0000 C.ar    1  UNL1        0.0114
     42 C           0.0000    0.0000    0.0000 C.ar    1  UNL1        0.0005
     43 C           0.0000    0.0000    0.0000 C.3     1  UNL1        0.0258
     44 C           0.0000    0.0000    0.0000 C.3     1  UNL1        0.0050
     45 C           0.0000    0.0000    0.0000 C.3     1  UNL1        0.0041
     46 C           0.0000    0.0000    0.0000 C.3     1  UNL1        0.0003
     47 C           0.0000    0.0000    0.0000 C.3     1  UNL1        0.0003
     48 C           0.0000    0.0000    0.0000 C.3     1  UNL1        0.0231
     49 C           0.0000    0.0000    0.0000 C.3     1  UNL1        0.0941
     50 C           0.0000    0.0000    0.0000 C.3     1  UNL1        0.1081
     51 C           0.0000    0.0000    0.0000 C.ar    1  UNL1        0.0147
     52 C           0.0000    0.0000    0.0000 C.ar    1  UNL1        0.0059
     53 C           0.0000    0.0000    0.0000 C.ar    1  UNL1        0.0402
     54 C           0.0000    0.0000    0.0000 C.ar    1  UNL1        0.1303
     55 S           0.0000    0.0000    0.0000 S.O2    1  UNL1        0.0933
     56 O           0.0000    0.0000    0.0000 O.2     1  UNL1       -0.1611
     57 O           0.0000    0.0000    0.0000 O.2     1  UNL1       -0.1611
     58 C           0.0000    0.0000    0.0000 C.3     1  UNL1        0.5262
     59 F           0.0000    0.0000    0.0000 F       1  UNL1       -0.1500
     60 F           0.0000    0.0000    0.0000 F       1  UNL1       -0.1500
     61 F           0.0000    0.0000    0.0000 F       1  UNL1       -0.1500
@<TRIPOS>BOND
     1     1     2    1
     2     2     3    1
     3     3     4    1
     4     4     5    1
     5     5     6    1
     6     6     7    1
     7     7     8    1
     8     8     9   ar
     9     9    10   ar
    10    10    11   ar
    11    11    12   ar
    12    12    13   ar
    13     8    13   ar
    14     5    14    1
    15    14    15    1
    16    15    16   ar
    17    16    17   ar
    18    17    18   ar
    19    18    19    1
    20    19    20    2
    21    19    21    2
    22    19    22    1
    23    22    23   am
    24    23    24    2
    25    23    25    1
    26    25    26   ar
    27    26    27   ar
    28    27    28   ar
    29    28    29    1
    30    29    30    1
    31    30    31    1
    32    31    32    1
    33    32    33    1
    34    33    34    1
    35    34    35    2
    36    35    36    1
    37    36    37   ar
    38    37    38   ar
    39    38    39   ar
    40    39    40    1
    41    39    41   ar
    42    41    42   ar
    43    36    42   ar
    44    35    43    1
    45    43    44    1
    46    44    45    1
    47    45    46    1
    48    45    47    1
    49    45    48    1
    50    34    48    1
    51    32    49    1
    52    49    50    1
    53    29    50    1
    54    28    51   ar
    55    51    52   ar
    56    25    52   ar
    57    18    53   ar
    58    53    54   ar
    59    15    54   ar
    60    54    55    1
    61    55    56    2
    62    55    57    2
    63    55    58    1
    64    58    59    1
    65    58    60    1
    66    58    61    1
