@<TRIPOS>MOLECULE
*****
 27 30 0 0 0
SMALL
GASTEIGER

@<TRIPOS>ATOM
      1 O           0.0000    0.0000    0.0000 O.2     1  UNL1       -0.2730
      2 C           0.0000    0.0000    0.0000 C.2     1  UNL1        0.2461
      3 C           0.0000    0.0000    0.0000 C.3     1  UNL1        0.1131
      4 C           0.0000    0.0000    0.0000 C.ar    1  UNL1       -0.0121
      5 C           0.0000    0.0000    0.0000 C.ar    1  UNL1       -0.0029
      6 C           0.0000    0.0000    0.0000 C.ar    1  UNL1        0.0119
      7 C           0.0000    0.0000    0.0000 C.ar    1  UNL1        0.0682
      8 CL          0.0000    0.0000    0.0000 Cl      1  UNL1       -0.0814
      9 C           0.0000    0.0000    0.0000 C.ar    1  UNL1        0.0679
     10 CL          0.0000    0.0000    0.0000 Cl      1  UNL1       -0.0814
     11 C           0.0000    0.0000    0.0000 C.ar    1  UNL1        0.0085
     12 N           0.0000    0.0000    0.0000 N.am    1  UNL1       -0.2003
     13 C           0.0000    0.0000    0.0000 C.3     1  UNL1        0.1415
     14 C           0.0000    0.0000    0.0000 C.ar    1  UNL1       -0.0005
     15 C           0.0000    0.0000    0.0000 C.ar    1  UNL1       -0.0026
     16 C           0.0000    0.0000    0.0000 C.ar    1  UNL1       -0.0002
     17 C           0.0000    0.0000    0.0000 C.ar    1  UNL1        0.0015
     18 C           0.0000    0.0000    0.0000 C.ar    1  UNL1        0.0189
     19 C           0.0000    0.0000    0.0000 C.ar    1  UNL1        0.0997
     20 C           0.0000    0.0000    0.0000 C.ar    1  UNL1        0.0961
     21 N           0.0000    0.0000    0.0000 N.ar    1  UNL1       -0.3137
     22 C           0.0000    0.0000    0.0000 C.3     1  UNL1        0.1077
     23 C           0.0000    0.0000    0.0000 C.3     1  UNL1        0.0324
     24 C           0.0000    0.0000    0.0000 C.3     1  UNL1        0.0659
     25 C           0.0000    0.0000    0.0000 C.ar    1  UNL1        0.1204
     26 N           0.0000    0.0000    0.0000 N.ar    1  UNL1       -0.2309
     27 C           0.0000    0.0000    0.0000 C.ar    1  UNL1       -0.0010
@<TRIPOS>BOND
     1     1     2    2
     2     2     3    1
     3     3     4    1
     4     4     5   ar
     5     5     6   ar
     6     6     7   ar
     7     7     8    1
     8     7     9   ar
     9     9    10    1
    10     9    11   ar
    11     4    11   ar
    12     2    12   am
    13    12    13    1
    14    13    14    1
    15    14    15   ar
    16    15    16   ar
    17    16    17   ar
    18    17    18   ar
    19    18    19    1
    20    19    20   ar
    21    20    21   ar
    22    21    22    1
    23    22    23    1
    24    23    24    1
    25    24    25    1
    26    21    25   ar
    27    25    26   ar
    28    19    26   ar
    29    18    27   ar
    30    14    27   ar
