@<TRIPOS>MOLECULE
*****
 39 43 0 0 0
SMALL
GASTEIGER

@<TRIPOS>ATOM
      1 C           0.0000    0.0000    0.0000 C.2     1  UNL1        0.0049
      2 C           0.0000    0.0000    0.0000 C.2     1  UNL1        0.0598
      3 C           0.0000    0.0000    0.0000 C.2     1  UNL1        0.2691
      4 O           0.0000    0.0000    0.0000 O.2     1  UNL1       -0.2680
      5 N           0.0000    0.0000    0.0000 N.am    1  UNL1       -0.1754
      6 C           0.0000    0.0000    0.0000 C.ar    1  UNL1        0.0751
      7 C           0.0000    0.0000    0.0000 C.ar    1  UNL1        0.0167
      8 C           0.0000    0.0000    0.0000 C.ar    1  UNL1        0.0028
      9 C           0.0000    0.0000    0.0000 C.ar    1  UNL1        0.0177
     10 C           0.0000    0.0000    0.0000 C.ar    1  UNL1        0.0695
     11 N           0.0000    0.0000    0.0000 N.ar    1  UNL1       -0.2591
     12 C           0.0000    0.0000    0.0000 C.ar    1  UNL1        0.2656
     13 O           0.0000    0.0000    0.0000 O.2     1  UNL1       -0.2666
     14 C           0.0000    0.0000    0.0000 C.ar    1  UNL1        0.0570
     15 C           0.0000    0.0000    0.0000 C.ar    1  UNL1       -0.0127
     16 C           0.0000    0.0000    0.0000 C.3     1  UNL1        0.0313
     17 C           0.0000    0.0000    0.0000 C.ar    1  UNL1        0.0501
     18 C           0.0000    0.0000    0.0000 C.ar    1  UNL1        0.1045
     19 N           0.0000    0.0000    0.0000 N.ar    1  UNL1       -0.2105
     20 C           0.0000    0.0000    0.0000 C.ar    1  UNL1        0.2423
     21 N           0.0000    0.0000    0.0000 N.pl3   1  UNL1       -0.1745
     22 C           0.0000    0.0000    0.0000 C.ar    1  UNL1        0.1075
     23 C           0.0000    0.0000    0.0000 C.ar    1  UNL1        0.0210
     24 C           0.0000    0.0000    0.0000 C.ar    1  UNL1        0.0161
     25 C           0.0000    0.0000    0.0000 C.ar    1  UNL1        0.0510
     26 N           0.0000    0.0000    0.0000 N.pl3   1  UNL1       -0.3046
     27 C           0.0000    0.0000    0.0000 C.3     1  UNL1        0.1081
     28 C           0.0000    0.0000    0.0000 C.3     1  UNL1        0.0938
     29 N           0.0000    0.0000    0.0000 N.3     1  UNL1       -0.2686
     30 C           0.0000    0.0000    0.0000 C.3     1  UNL1        0.0897
     31 C           0.0000    0.0000    0.0000 C.3     1  UNL1        0.0938
     32 C           0.0000    0.0000    0.0000 C.3     1  UNL1        0.1081
     33 C           0.0000    0.0000    0.0000 C.ar    1  UNL1        0.0527
     34 C           0.0000    0.0000    0.0000 C.ar    1  UNL1        0.1551
     35 O           0.0000    0.0000    0.0000 O.3     1  UNL1       -0.4701
     36 C           0.0000    0.0000    0.0000 C.3     1  UNL1        0.2525
     37 N           0.0000    0.0000    0.0000 N.ar    1  UNL1       -0.1943
     38 C           0.0000    0.0000    0.0000 C.ar    1  UNL1        0.1540
     39 C           0.0000    0.0000    0.0000 C.ar    1  UNL1        0.0343
@<TRIPOS>BOND
     1     1     2    2
     2     2     3    1
     3     3     4    2
     4     3     5   am
     5     5     6    1
     6     6     7   ar
     7     7     8   ar
     8     8     9   ar
     9     9    10   ar
    10    10    11    1
    11    11    12   ar
    12    12    13    2
    13    12    14   ar
    14    14    15   ar
    15    15    16    1
    16    15    17   ar
    17    17    18   ar
    18    18    19   ar
    19    19    20   ar
    20    20    21    1
    21    21    22    1
    22    22    23   ar
    23    23    24   ar
    24    24    25   ar
    25    25    26    1
    26    26    27    1
    27    27    28    1
    28    28    29    1
    29    29    30    1
    30    29    31    1
    31    31    32    1
    32    26    32    1
    33    25    33   ar
    34    33    34   ar
    35    22    34   ar
    36    34    35    1
    37    35    36    1
    38    20    37   ar
    39    37    38   ar
    40    17    38   ar
    41    11    38   ar
    42    10    39   ar
    43     6    39   ar
