@<TRIPOS>MOLECULE
*****
 11 11 0 0 0
SMALL
GASTEIGER

@<TRIPOS>ATOM
      1 N           0.0000    0.0000    0.0000 N.3     1  UNL1       -0.1310
      2 C           0.0000    0.0000    0.0000 C.3     1  UNL1        0.1140
      3 C           0.0000    0.0000    0.0000 C.3     1  UNL1        0.0469
      4 C           0.0000    0.0000    0.0000 C.ar    1  UNL1       -0.0173
      5 C           0.0000    0.0000    0.0000 C.ar    1  UNL1       -0.0007
      6 C           0.0000    0.0000    0.0000 C.ar    1  UNL1        0.0451
      7 C           0.0000    0.0000    0.0000 C.ar    1  UNL1        0.2342
      8 O           0.0000    0.0000    0.0000 O.3     1  UNL1       -0.2831
      9 C           0.0000    0.0000    0.0000 C.ar    1  UNL1        0.2339
     10 O           0.0000    0.0000    0.0000 O.3     1  UNL1       -0.2832
     11 C           0.0000    0.0000    0.0000 C.ar    1  UNL1        0.0412
@<TRIPOS>BOND
     1     1     2    1
     2     2     3    1
     3     3     4    1
     4     4     5   ar
     5     5     6   ar
     6     6     7   ar
     7     7     8    1
     8     7     9   ar
     9     9    10    1
    10     9    11   ar
    11     4    11   ar
