@<TRIPOS>MOLECULE
*****
 29 32 0 0 0
SMALL
GASTEIGER

@<TRIPOS>ATOM
      1 C           0.0000    0.0000    0.0000 C.3     1  UNL1        0.2525
      2 O           0.0000    0.0000    0.0000 O.3     1  UNL1       -0.4701
      3 C           0.0000    0.0000    0.0000 C.ar    1  UNL1        0.1572
      4 C           0.0000    0.0000    0.0000 C.ar    1  UNL1        0.0573
      5 C           0.0000    0.0000    0.0000 C.ar    1  UNL1        0.0857
      6 N           0.0000    0.0000    0.0000 N.ar    1  UNL1       -0.2436
      7 C           0.0000    0.0000    0.0000 C.ar    1  UNL1        0.1002
      8 C           0.0000    0.0000    0.0000 C.ar    1  UNL1        0.0372
      9 C           0.0000    0.0000    0.0000 C.ar    1  UNL1        0.0735
     10 N           0.0000    0.0000    0.0000 N.pl3   1  UNL1       -0.2123
     11 C           0.0000    0.0000    0.0000 C.ar    1  UNL1        0.0720
     12 C           0.0000    0.0000    0.0000 C.ar    1  UNL1        0.0171
     13 C           0.0000    0.0000    0.0000 C.ar    1  UNL1        0.0094
     14 C           0.0000    0.0000    0.0000 C.ar    1  UNL1        0.0486
     15 S           0.0000    0.0000    0.0000 S.2     1  UNL1       -0.0645
     16 C           0.0000    0.0000    0.0000 C.ar    1  UNL1        0.1345
     17 N           0.0000    0.0000    0.0000 N.ar    1  UNL1       -0.2362
     18 C           0.0000    0.0000    0.0000 C.ar    1  UNL1        0.0892
     19 C           0.0000    0.0000    0.0000 C.ar    1  UNL1        0.0361
     20 C           0.0000    0.0000    0.0000 C.ar    1  UNL1        0.0344
     21 C           0.0000    0.0000    0.0000 C.ar    1  UNL1        0.0242
     22 C           0.0000    0.0000    0.0000 C.ar    1  UNL1        0.1394
     23 S           0.0000    0.0000    0.0000 S.O2    1  UNL1        0.0083
     24 O           0.0000    0.0000    0.0000 O.2     1  UNL1       -0.1686
     25 O           0.0000    0.0000    0.0000 O.2     1  UNL1       -0.1686
     26 C           0.0000    0.0000    0.0000 C.3     1  UNL1        0.1152
     27 C           0.0000    0.0000    0.0000 C.3     1  UNL1        0.0240
     28 C           0.0000    0.0000    0.0000 C.3     1  UNL1        0.0240
     29 C           0.0000    0.0000    0.0000 C.3     1  UNL1        0.0240
@<TRIPOS>BOND
     1     1     2    1
     2     2     3    1
     3     3     4   ar
     4     4     5   ar
     5     5     6   ar
     6     6     7   ar
     7     7     8   ar
     8     8     9   ar
     9     9    10    1
    10    10    11    1
    11    11    12   ar
    12    12    13   ar
    13    13    14   ar
    14    14    15   ar
    15    15    16   ar
    16    16    17   ar
    17    17    18   ar
    18    14    18   ar
    19    18    19   ar
    20    11    19   ar
    21     9    20   ar
    22     5    20   ar
    23    20    21   ar
    24    21    22   ar
    25     3    22   ar
    26    22    23    1
    27    23    24    2
    28    23    25    2
    29    23    26    1
    30    26    27    1
    31    26    28    1
    32    26    29    1
