@<TRIPOS>MOLECULE
*****
 20 20 0 0 0
SMALL
GASTEIGER

@<TRIPOS>ATOM
      1 N           0.0000    0.0000    0.0000 N.3     1  UNL1       -0.1313
      2 C           0.0000    0.0000    0.0000 C.3     1  UNL1        0.1131
      3 C           0.0000    0.0000    0.0000 C.3     1  UNL1        0.0680
      4 C           0.0000    0.0000    0.0000 C.3     1  UNL1        0.2117
      5 O           0.0000    0.0000    0.0000 O.3     1  UNL1       -0.4335
      6 C           0.0000    0.0000    0.0000 C.2     1  UNL1        0.4228
      7 O           0.0000    0.0000    0.0000 O.2     1  UNL1       -0.2245
      8 N           0.0000    0.0000    0.0000 N.am    1  UNL1       -0.1445
      9 C           0.0000    0.0000    0.0000 C.3     1  UNL1        0.2346
     10 N           0.0000    0.0000    0.0000 N.pl3   1  UNL1       -0.1795
     11 C           0.0000    0.0000    0.0000 C.ar    1  UNL1        0.2382
     12 N           0.0000    0.0000    0.0000 N.ar    1  UNL1       -0.2108
     13 C           0.0000    0.0000    0.0000 C.ar    1  UNL1        0.1035
     14 C           0.0000    0.0000    0.0000 C.ar    1  UNL1        0.0414
     15 C           0.0000    0.0000    0.0000 C.ar    1  UNL1        0.1035
     16 N           0.0000    0.0000    0.0000 N.ar    1  UNL1       -0.2108
     17 C           0.0000    0.0000    0.0000 C.3     1  UNL1        0.2349
     18 CL          0.0000    0.0000    0.0000 Cl      1  UNL1       -0.0790
     19 CL          0.0000    0.0000    0.0000 Cl      1  UNL1       -0.0790
     20 CL          0.0000    0.0000    0.0000 Cl      1  UNL1       -0.0790
@<TRIPOS>BOND
     1     1     2    1
     2     2     3    1
     3     3     4    1
     4     4     5    1
     5     5     6    1
     6     6     7    2
     7     6     8   am
     8     8     9    1
     9     9    10    1
    10    10    11    1
    11    11    12   ar
    12    12    13   ar
    13    13    14   ar
    14    14    15   ar
    15    15    16   ar
    16    11    16   ar
    17     9    17    1
    18    17    18    1
    19    17    19    1
    20    17    20    1
