@<TRIPOS>MOLECULE
*****
 29 30 0 0 0
SMALL
GASTEIGER

@<TRIPOS>ATOM
      1 C           0.0000    0.0000    0.0000 C.3     1  UNL1        0.0308
      2 C           0.0000    0.0000    0.0000 C.2     1  UNL1       -0.0212
      3 C           0.0000    0.0000    0.0000 C.2     1  UNL1        0.0508
      4 C           0.0000    0.0000    0.0000 C.2     1  UNL1        0.0042
      5 C           0.0000    0.0000    0.0000 C.2     1  UNL1        0.0001
      6 C           0.0000    0.0000    0.0000 C.2     1  UNL1        0.2644
      7 O           0.0000    0.0000    0.0000 O.2     1  UNL1       -0.2684
      8 N           0.0000    0.0000    0.0000 N.am    1  UNL1       -0.2032
      9 C           0.0000    0.0000    0.0000 C.3     1  UNL1        0.1021
     10 C           0.0000    0.0000    0.0000 C.3     1  UNL1        0.0554
     11 C           0.0000    0.0000    0.0000 C.3     1  UNL1        0.0053
     12 C           0.0000    0.0000    0.0000 C.3     1  UNL1        0.0053
     13 C           0.0000    0.0000    0.0000 C.3     1  UNL1        0.1687
     14 O           0.0000    0.0000    0.0000 O.3     1  UNL1       -0.4775
     15 C           0.0000    0.0000    0.0000 C.ar    1  UNL1        0.1575
     16 C           0.0000    0.0000    0.0000 C.ar    1  UNL1        0.1364
     17 N           0.0000    0.0000    0.0000 N.ar    1  UNL1       -0.2304
     18 C           0.0000    0.0000    0.0000 C.ar    1  UNL1        0.1532
     19 C           0.0000    0.0000    0.0000 C.1     1  UNL1        0.1197
     20 N           0.0000    0.0000    0.0000 N.1     1  UNL1       -0.1893
     21 C           0.0000    0.0000    0.0000 C.ar    1  UNL1        0.1019
     22 C           0.0000    0.0000    0.0000 C.3     1  UNL1        0.4207
     23 F           0.0000    0.0000    0.0000 F       1  UNL1       -0.1658
     24 F           0.0000    0.0000    0.0000 F       1  UNL1       -0.1658
     25 F           0.0000    0.0000    0.0000 F       1  UNL1       -0.1658
     26 C           0.0000    0.0000    0.0000 C.ar    1  UNL1        0.0446
     27 C           0.0000    0.0000    0.0000 C.3     1  UNL1        0.0554
     28 C           0.0000    0.0000    0.0000 C.3     1  UNL1        0.0053
     29 C           0.0000    0.0000    0.0000 C.3     1  UNL1        0.0053
@<TRIPOS>BOND
     1     1     2    1
     2     2     3    2
     3     3     4    1
     4     4     5    2
     5     3     6    1
     6     6     7    2
     7     6     8   am
     8     8     9    1
     9     9    10    1
    10    10    11    1
    11    10    12    1
    12    10    13    1
    13    13    14    1
    14    14    15    1
    15    15    16   ar
    16    16    17   ar
    17    17    18   ar
    18    18    19    1
    19    19    20    3
    20    18    21   ar
    21    21    22    1
    22    22    23    1
    23    22    24    1
    24    22    25    1
    25    21    26   ar
    26    15    26   ar
    27    13    27    1
    28     9    27    1
    29    27    28    1
    30    27    29    1
