@<TRIPOS>MOLECULE
*****
 22 23 0 0 0
SMALL
GASTEIGER

@<TRIPOS>ATOM
      1 C           0.0000    0.0000    0.0000 C.3     1  UNL1        0.0053
      2 C           0.0000    0.0000    0.0000 C.3     1  UNL1        0.0555
      3 C           0.0000    0.0000    0.0000 C.3     1  UNL1        0.0053
      4 C           0.0000    0.0000    0.0000 C.3     1  UNL1        0.1053
      5 N           0.0000    0.0000    0.0000 N.am    1  UNL1       -0.1673
      6 C           0.0000    0.0000    0.0000 C.2     1  UNL1        0.4629
      7 O           0.0000    0.0000    0.0000 O.co2   1  UNL1       -0.2207
      8 O           0.0000    0.0000    0.0000 O.co2   1  UNL1       -0.2207
      9 C           0.0000    0.0000    0.0000 C.3     1  UNL1        0.0555
     10 C           0.0000    0.0000    0.0000 C.3     1  UNL1        0.0053
     11 C           0.0000    0.0000    0.0000 C.3     1  UNL1        0.0053
     12 C           0.0000    0.0000    0.0000 C.3     1  UNL1        0.1686
     13 O           0.0000    0.0000    0.0000 O.3     1  UNL1       -0.4790
     14 C           0.0000    0.0000    0.0000 C.ar    1  UNL1        0.1393
     15 C           0.0000    0.0000    0.0000 C.ar    1  UNL1        0.0376
     16 C           0.0000    0.0000    0.0000 C.ar    1  UNL1        0.0142
     17 C           0.0000    0.0000    0.0000 C.ar    1  UNL1        0.0792
     18 C           0.0000    0.0000    0.0000 C.1     1  UNL1        0.1013
     19 N           0.0000    0.0000    0.0000 N.1     1  UNL1       -0.1908
     20 C           0.0000    0.0000    0.0000 C.ar    1  UNL1        0.0703
     21 CL          0.0000    0.0000    0.0000 Cl      1  UNL1       -0.0814
     22 C           0.0000    0.0000    0.0000 C.ar    1  UNL1        0.0490
@<TRIPOS>BOND
     1     1     2    1
     2     2     3    1
     3     2     4    1
     4     4     5    1
     5     5     6   am
     6     6     7   ar
     7     6     8   ar
     8     4     9    1
     9     9    10    1
    10     9    11    1
    11     9    12    1
    12     2    12    1
    13    12    13    1
    14    13    14    1
    15    14    15   ar
    16    15    16   ar
    17    16    17   ar
    18    17    18    1
    19    18    19    3
    20    17    20   ar
    21    20    21    1
    22    20    22   ar
    23    14    22   ar
