@<TRIPOS>MOLECULE
*****
 65 68 0 0 0
SMALL
GASTEIGER

@<TRIPOS>ATOM
      1 C           0.0000    0.0000    0.0000 C.3     1  UNL1        0.1744
      2 O           0.0000    0.0000    0.0000 O.3     1  UNL1       -0.3494
      3 C           0.0000    0.0000    0.0000 C.3     1  UNL1        0.1361
      4 C           0.0000    0.0000    0.0000 C.3     1  UNL1        0.0634
      5 C           0.0000    0.0000    0.0000 C.3     1  UNL1        0.1209
      6 C           0.0000    0.0000    0.0000 C.3     1  UNL1        0.0299
      7 C           0.0000    0.0000    0.0000 C.3     1  UNL1        0.0079
      8 C           0.0000    0.0000    0.0000 C.3     1  UNL1        0.0622
      9 C           0.0000    0.0000    0.0000 C.3     1  UNL1        0.0056
     10 C           0.0000    0.0000    0.0000 C.3     1  UNL1        0.2789
     11 O           0.0000    0.0000    0.0000 O.3     1  UNL1       -0.1868
     12 O           0.0000    0.0000    0.0000 O.3     1  UNL1       -0.3290
     13 C           0.0000    0.0000    0.0000 C.2     1  UNL1        0.2793
     14 O           0.0000    0.0000    0.0000 O.2     1  UNL1       -0.2812
     15 C           0.0000    0.0000    0.0000 C.2     1  UNL1        0.2893
     16 O           0.0000    0.0000    0.0000 O.2     1  UNL1       -0.2666
     17 N           0.0000    0.0000    0.0000 N.am    1  UNL1       -0.2654
     18 C           0.0000    0.0000    0.0000 C.3     1  UNL1        0.0943
     19 C           0.0000    0.0000    0.0000 C.3     1  UNL1        0.0216
     20 C           0.0000    0.0000    0.0000 C.3     1  UNL1        0.0040
     21 C           0.0000    0.0000    0.0000 C.3     1  UNL1        0.0314
     22 C           0.0000    0.0000    0.0000 C.3     1  UNL1        0.1749
     23 C           0.0000    0.0000    0.0000 C.2     1  UNL1        0.3351
     24 O           0.0000    0.0000    0.0000 O.2     1  UNL1       -0.2483
     25 O           0.0000    0.0000    0.0000 O.3     1  UNL1       -0.4507
     26 C           0.0000    0.0000    0.0000 C.3     1  UNL1        0.1761
     27 C           0.0000    0.0000    0.0000 C.3     1  UNL1        0.0406
     28 C           0.0000    0.0000    0.0000 C.3     1  UNL1        0.0037
     29 C           0.0000    0.0000    0.0000 C.3     1  UNL1        0.0037
     30 C           0.0000    0.0000    0.0000 C.3     1  UNL1        0.0027
     31 C           0.0000    0.0000    0.0000 C.3     1  UNL1        0.0028
     32 C           0.0000    0.0000    0.0000 C.3     1  UNL1        0.0354
     33 C           0.0000    0.0000    0.0000 C.3     1  UNL1        0.1789
     34 O           0.0000    0.0000    0.0000 O.3     1  UNL1       -0.2205
     35 C           0.0000    0.0000    0.0000 C.3     1  UNL1        0.1455
     36 O           0.0000    0.0000    0.0000 O.3     1  UNL1       -0.3510
     37 C           0.0000    0.0000    0.0000 C.3     1  UNL1        0.1741
     38 C           0.0000    0.0000    0.0000 C.3     1  UNL1        0.0322
     39 C           0.0000    0.0000    0.0000 C.3     1  UNL1        0.1083
     40 C           0.0000    0.0000    0.0000 C.2     1  UNL1        0.1579
     41 O           0.0000    0.0000    0.0000 O.2     1  UNL1       -0.2956
     42 C           0.0000    0.0000    0.0000 C.3     1  UNL1        0.0791
     43 C           0.0000    0.0000    0.0000 C.3     1  UNL1        0.0125
     44 C           0.0000    0.0000    0.0000 C.2     1  UNL1       -0.0251
     45 C           0.0000    0.0000    0.0000 C.2     1  UNL1       -0.0152
     46 C           0.0000    0.0000    0.0000 C.3     1  UNL1        0.0287
     47 C           0.0000    0.0000    0.0000 C.3     1  UNL1        0.2041
     48 O           0.0000    0.0000    0.0000 O.3     1  UNL1       -0.2155
     49 C           0.0000    0.0000    0.0000 C.3     1  UNL1        0.2061
     50 O           0.0000    0.0000    0.0000 O.3     1  UNL1       -0.3432
     51 C           0.0000    0.0000    0.0000 C.3     1  UNL1        0.1747
     52 C           0.0000    0.0000    0.0000 C.2     1  UNL1        0.1800
     53 O           0.0000    0.0000    0.0000 O.2     1  UNL1       -0.2934
     54 C           0.0000    0.0000    0.0000 C.3     1  UNL1        0.0605
     55 C           0.0000    0.0000    0.0000 C.3     1  UNL1        0.0079
     56 C           0.0000    0.0000    0.0000 C.3     1  UNL1        0.0117
     57 C           0.0000    0.0000    0.0000 C.3     1  UNL1        0.0225
     58 C           0.0000    0.0000    0.0000 C.3     1  UNL1        0.0047
     59 C           0.0000    0.0000    0.0000 C.2     1  UNL1       -0.0265
     60 C           0.0000    0.0000    0.0000 C.2     1  UNL1       -0.0046
     61 C           0.0000    0.0000    0.0000 C.2     1  UNL1       -0.0004
     62 C           0.0000    0.0000    0.0000 C.2     1  UNL1       -0.0006
     63 C           0.0000    0.0000    0.0000 C.2     1  UNL1       -0.0062
     64 C           0.0000    0.0000    0.0000 C.2     1  UNL1       -0.0172
     65 C           0.0000    0.0000    0.0000 C.3     1  UNL1        0.0288
@<TRIPOS>BOND
     1     1     2    1
     2     2     3    1
     3     3     4    1
     4     4     5    1
     5     5     6    1
     6     6     7    1
     7     7     8    1
     8     8     9    1
     9     8    10    1
    10    10    11    1
    11    10    12    1
    12     5    12    1
    13    10    13    1
    14    13    14    2
    15    13    15    1
    16    15    16    2
    17    15    17   am
    18    17    18    1
    19    18    19    1
    20    19    20    1
    21    20    21    1
    22    21    22    1
    23    17    22    1
    24    22    23    1
    25    23    24    2
    26    23    25    1
    27    25    26    1
    28    26    27    1
    29    27    28    1
    30    27    29    1
    31    29    30    1
    32    30    31    1
    33    31    32    1
    34    32    33    1
    35    33    34    1
    36    33    35    1
    37    35    36    1
    38    36    37    1
    39    35    38    1
    40    30    38    1
    41    26    39    1
    42    39    40    1
    43    40    41    2
    44    40    42    1
    45    42    43    1
    46    42    44    1
    47    44    45    2
    48    45    46    1
    49    45    47    1
    50    47    48    1
    51    47    49    1
    52    49    50    1
    53    50    51    1
    54    49    52    1
    55    52    53    2
    56    52    54    1
    57    54    55    1
    58    54    56    1
    59    56    57    1
    60    57    58    1
    61    57    59    1
    62    59    60    2
    63    60    61    1
    64    61    62    2
    65    62    63    1
    66    63    64    2
    67     3    64    1
    68    64    65    1
