@<TRIPOS>MOLECULE
*****
 29 34 0 0 0
SMALL
GASTEIGER

@<TRIPOS>ATOM
      1 C           0.0000    0.0000    0.0000 C.3     1  UNL1        0.0742
      2 C           0.0000    0.0000    0.0000 C.ar    1  UNL1        0.1473
      3 N           0.0000    0.0000    0.0000 N.ar    1  UNL1       -0.1333
      4 N           0.0000    0.0000    0.0000 N.ar    1  UNL1       -0.1314
      5 C           0.0000    0.0000    0.0000 C.ar    1  UNL1        0.1670
      6 N           0.0000    0.0000    0.0000 N.ar    1  UNL1       -0.2792
      7 C           0.0000    0.0000    0.0000 C.ar    1  UNL1        0.0676
      8 C           0.0000    0.0000    0.0000 C.ar    1  UNL1        0.0176
      9 C           0.0000    0.0000    0.0000 C.ar    1  UNL1        0.0016
     10 C           0.0000    0.0000    0.0000 C.ar    1  UNL1        0.0033
     11 C           0.0000    0.0000    0.0000 C.ar    1  UNL1        0.0419
     12 C           0.0000    0.0000    0.0000 C.ar    1  UNL1        0.1237
     13 N           0.0000    0.0000    0.0000 N.ar    1  UNL1       -0.1463
     14 N           0.0000    0.0000    0.0000 N.ar    1  UNL1       -0.1463
     15 C           0.0000    0.0000    0.0000 C.ar    1  UNL1        0.1237
     16 C           0.0000    0.0000    0.0000 C.ar    1  UNL1        0.0030
     17 C           0.0000    0.0000    0.0000 C.ar    1  UNL1        0.0334
     18 C           0.0000    0.0000    0.0000 C.2     1  UNL1        0.0777
     19 C           0.0000    0.0000    0.0000 C.ar    1  UNL1        0.0173
     20 C           0.0000    0.0000    0.0000 C.ar    1  UNL1        0.0023
     21 C           0.0000    0.0000    0.0000 C.ar    1  UNL1        0.0114
     22 C           0.0000    0.0000    0.0000 C.ar    1  UNL1        0.0577
     23 CL          0.0000    0.0000    0.0000 Cl      1  UNL1       -0.0822
     24 C           0.0000    0.0000    0.0000 C.ar    1  UNL1        0.0114
     25 C           0.0000    0.0000    0.0000 C.ar    1  UNL1        0.0023
     26 N           0.0000    0.0000    0.0000 N.2     1  UNL1       -0.2670
     27 C           0.0000    0.0000    0.0000 C.3     1  UNL1        0.1368
     28 C           0.0000    0.0000    0.0000 C.3     1  UNL1        0.0322
     29 C           0.0000    0.0000    0.0000 C.3     1  UNL1        0.0322
@<TRIPOS>BOND
     1     1     2    1
     2     2     3   ar
     3     3     4   ar
     4     4     5   ar
     5     5     6   ar
     6     2     6   ar
     7     6     7    1
     8     7     8   ar
     9     8     9   ar
    10     9    10   ar
    11    10    11    1
    12    11    12   ar
    13    12    13   ar
    14    13    14   ar
    15    14    15   ar
    16    11    15   ar
    17    10    16   ar
    18    16    17   ar
    19     7    17   ar
    20    17    18    1
    21    18    19    1
    22    19    20   ar
    23    20    21   ar
    24    21    22   ar
    25    22    23    1
    26    22    24   ar
    27    24    25   ar
    28    19    25   ar
    29    18    26    2
    30    26    27    1
    31     5    27    1
    32    27    28    1
    33    28    29    1
    34    27    29    1
