@<TRIPOS>MOLECULE
*****
 18 20 0 0 0
SMALL
GASTEIGER

@<TRIPOS>ATOM
      1 O           0.0000    0.0000    0.0000 O.2     1  UNL1       -0.2254
      2 C           0.0000    0.0000    0.0000 C.2     1  UNL1        0.4135
      3 O           0.0000    0.0000    0.0000 O.3     1  UNL1       -0.4100
      4 C           0.0000    0.0000    0.0000 C.ar    1  UNL1        0.1508
      5 C           0.0000    0.0000    0.0000 C.ar    1  UNL1        0.0794
      6 C           0.0000    0.0000    0.0000 C.ar    1  UNL1        0.1988
      7 O           0.0000    0.0000    0.0000 O.3     1  UNL1       -0.2865
      8 C           0.0000    0.0000    0.0000 C.ar    1  UNL1        0.0420
      9 C           0.0000    0.0000    0.0000 C.ar    1  UNL1        0.0037
     10 C           0.0000    0.0000    0.0000 C.ar    1  UNL1        0.0331
     11 C           0.0000    0.0000    0.0000 C.3     1  UNL1        0.1311
     12 N           0.0000    0.0000    0.0000 N.am    1  UNL1       -0.2204
     13 C           0.0000    0.0000    0.0000 C.ar    1  UNL1        0.0573
     14 C           0.0000    0.0000    0.0000 C.ar    1  UNL1        0.0150
     15 C           0.0000    0.0000    0.0000 C.ar    1  UNL1        0.0013
     16 C           0.0000    0.0000    0.0000 C.ar    1  UNL1        0.0001
     17 C           0.0000    0.0000    0.0000 C.ar    1  UNL1        0.0013
     18 C           0.0000    0.0000    0.0000 C.ar    1  UNL1        0.0150
@<TRIPOS>BOND
     1     1     2    2
     2     2     3    1
     3     3     4    1
     4     4     5   ar
     5     5     6   ar
     6     6     7    1
     7     6     8   ar
     8     8     9   ar
     9     9    10   ar
    10     4    10   ar
    11    10    11    1
    12    11    12    1
    13     2    12   am
    14    12    13    1
    15    13    14   ar
    16    14    15   ar
    17    15    16   ar
    18    16    17   ar
    19    17    18   ar
    20    13    18   ar
