@<TRIPOS>MOLECULE
*****
 31 34 0 0 0
SMALL
GASTEIGER

@<TRIPOS>ATOM
      1 N           0.0000    0.0000    0.0000 N.pl3   1  UNL1       -0.0860
      2 C           0.0000    0.0000    0.0000 C.ar    1  UNL1        0.2566
      3 N           0.0000    0.0000    0.0000 N.ar    1  UNL1       -0.2096
      4 C           0.0000    0.0000    0.0000 C.ar    1  UNL1        0.1035
      5 C           0.0000    0.0000    0.0000 C.ar    1  UNL1        0.0405
      6 C           0.0000    0.0000    0.0000 C.ar    1  UNL1        0.0933
      7 C           0.0000    0.0000    0.0000 C.ar    1  UNL1        0.0664
      8 S           0.0000    0.0000    0.0000 S.2     1  UNL1       -0.0630
      9 C           0.0000    0.0000    0.0000 C.ar    1  UNL1        0.1345
     10 N           0.0000    0.0000    0.0000 N.ar    1  UNL1       -0.2362
     11 C           0.0000    0.0000    0.0000 C.ar    1  UNL1        0.0916
     12 C           0.0000    0.0000    0.0000 C.ar    1  UNL1        0.0470
     13 C           0.0000    0.0000    0.0000 C.ar    1  UNL1        0.0038
     14 C           0.0000    0.0000    0.0000 C.ar    1  UNL1        0.0016
     15 C           0.0000    0.0000    0.0000 C.ar    1  UNL1        0.0203
     16 C           0.0000    0.0000    0.0000 C.ar    1  UNL1        0.1184
     17 N           0.0000    0.0000    0.0000 N.pl3   1  UNL1       -0.0941
     18 S           0.0000    0.0000    0.0000 S.O2    1  UNL1        0.0972
     19 O           0.0000    0.0000    0.0000 O.2     1  UNL1       -0.1482
     20 O           0.0000    0.0000    0.0000 O.2     1  UNL1       -0.1482
     21 C           0.0000    0.0000    0.0000 C.ar    1  UNL1        0.1815
     22 C           0.0000    0.0000    0.0000 C.ar    1  UNL1        0.1612
     23 F           0.0000    0.0000    0.0000 F       1  UNL1       -0.2027
     24 C           0.0000    0.0000    0.0000 C.ar    1  UNL1        0.0312
     25 C           0.0000    0.0000    0.0000 C.ar    1  UNL1        0.0047
     26 C           0.0000    0.0000    0.0000 C.ar    1  UNL1        0.0312
     27 C           0.0000    0.0000    0.0000 C.ar    1  UNL1        0.1612
     28 F           0.0000    0.0000    0.0000 F       1  UNL1       -0.2027
     29 C           0.0000    0.0000    0.0000 C.ar    1  UNL1        0.1581
     30 F           0.0000    0.0000    0.0000 F       1  UNL1       -0.2027
     31 N           0.0000    0.0000    0.0000 N.ar    1  UNL1       -0.2105
@<TRIPOS>BOND
     1     1     2    1
     2     2     3   ar
     3     3     4   ar
     4     4     5   ar
     5     5     6   ar
     6     6     7    1
     7     7     8   ar
     8     8     9   ar
     9     9    10   ar
    10    10    11   ar
    11     7    11   ar
    12    11    12    1
    13    12    13   ar
    14    13    14   ar
    15    14    15   ar
    16    15    16   ar
    17    16    17    1
    18    17    18    1
    19    18    19    2
    20    18    20    2
    21    18    21    1
    22    21    22   ar
    23    22    23    1
    24    22    24   ar
    25    24    25   ar
    26    25    26   ar
    27    26    27   ar
    28    21    27   ar
    29    27    28    1
    30    16    29   ar
    31    12    29   ar
    32    29    30    1
    33     6    31   ar
    34     2    31   ar
