@<TRIPOS>MOLECULE
*****
 34 39 0 0 0
SMALL
GASTEIGER

@<TRIPOS>ATOM
      1 C           0.0000    0.0000    0.0000 C.3     1  UNL1        0.0334
      2 C           0.0000    0.0000    0.0000 C.ar    1  UNL1        0.0050
      3 C           0.0000    0.0000    0.0000 C.ar    1  UNL1       -0.0045
      4 C           0.0000    0.0000    0.0000 C.ar    1  UNL1       -0.0000
      5 C           0.0000    0.0000    0.0000 C.3     1  UNL1        0.1354
      6 N           0.0000    0.0000    0.0000 N.ar    1  UNL1       -0.2953
      7 C           0.0000    0.0000    0.0000 C.ar    1  UNL1        0.2014
      8 N           0.0000    0.0000    0.0000 N.pl3   1  UNL1       -0.2792
      9 C           0.0000    0.0000    0.0000 C.3     1  UNL1        0.0979
     10 C           0.0000    0.0000    0.0000 C.3     1  UNL1        0.0687
     11 C           0.0000    0.0000    0.0000 C.3     1  UNL1        0.0933
     12 N           0.0000    0.0000    0.0000 N.3     1  UNL1       -0.2177
     13 C           0.0000    0.0000    0.0000 C.3     1  UNL1        0.0933
     14 C           0.0000    0.0000    0.0000 C.3     1  UNL1        0.0979
     15 N           0.0000    0.0000    0.0000 N.ar    1  UNL1       -0.2123
     16 C           0.0000    0.0000    0.0000 C.ar    1  UNL1        0.1132
     17 C           0.0000    0.0000    0.0000 C.ar    1  UNL1        0.0682
     18 N           0.0000    0.0000    0.0000 N.pl3   1  UNL1       -0.3034
     19 C           0.0000    0.0000    0.0000 C.3     1  UNL1        0.1082
     20 C           0.0000    0.0000    0.0000 C.3     1  UNL1        0.0938
     21 N           0.0000    0.0000    0.0000 N.3     1  UNL1       -0.2686
     22 C           0.0000    0.0000    0.0000 C.3     1  UNL1        0.0897
     23 C           0.0000    0.0000    0.0000 C.3     1  UNL1        0.0938
     24 C           0.0000    0.0000    0.0000 C.3     1  UNL1        0.1082
     25 C           0.0000    0.0000    0.0000 C.ar    1  UNL1        0.0275
     26 C           0.0000    0.0000    0.0000 C.ar    1  UNL1        0.0604
     27 CL          0.0000    0.0000    0.0000 Cl      1  UNL1       -0.0822
     28 C           0.0000    0.0000    0.0000 C.ar    1  UNL1        0.0303
     29 C           0.0000    0.0000    0.0000 C.ar    1  UNL1        0.0822
     30 C           0.0000    0.0000    0.0000 C.ar    1  UNL1       -0.0045
     31 C           0.0000    0.0000    0.0000 C.ar    1  UNL1        0.0050
     32 C           0.0000    0.0000    0.0000 C.3     1  UNL1        0.0334
     33 C           0.0000    0.0000    0.0000 C.ar    1  UNL1        0.1321
     34 F           0.0000    0.0000    0.0000 F       1  UNL1       -0.2048
@<TRIPOS>BOND
     1     1     2    1
     2     2     3   ar
     3     3     4   ar
     4     4     5    1
     5     5     6    1
     6     6     7   ar
     7     7     8    1
     8     8     9    1
     9     9    10    1
    10    10    11    1
    11    11    12    1
    12    12    13    1
    13    10    13    1
    14    10    14    1
    15     8    14    1
    16     7    15   ar
    17    15    16   ar
    18    16    17   ar
    19    17    18    1
    20    18    19    1
    21    19    20    1
    22    20    21    1
    23    21    22    1
    24    21    23    1
    25    23    24    1
    26    18    24    1
    27    17    25   ar
    28    25    26   ar
    29    26    27    1
    30    26    28   ar
    31    28    29   ar
    32    16    29   ar
    33     6    29   ar
    34     4    30   ar
    35    30    31   ar
    36    31    32    1
    37    31    33   ar
    38     2    33   ar
    39    33    34    1
