@<TRIPOS>MOLECULE
*****
 41 45 0 0 0
SMALL
GASTEIGER

@<TRIPOS>ATOM
      1 O           0.0000    0.0000    0.0000 O.2     1  UNL1       -0.1528
      2 S           0.0000    0.0000    0.0000 S.O2    1  UNL1        0.0636
      3 O           0.0000    0.0000    0.0000 O.2     1  UNL1       -0.1528
      4 C           0.0000    0.0000    0.0000 C.ar    1  UNL1        0.1223
      5 C           0.0000    0.0000    0.0000 C.ar    1  UNL1        0.0213
      6 C           0.0000    0.0000    0.0000 C.ar    1  UNL1        0.0213
      7 C           0.0000    0.0000    0.0000 C.ar    1  UNL1        0.1223
      8 S           0.0000    0.0000    0.0000 S.O2    1  UNL1        0.0635
      9 O           0.0000    0.0000    0.0000 O.2     1  UNL1       -0.1528
     10 O           0.0000    0.0000    0.0000 O.2     1  UNL1       -0.1528
     11 N           0.0000    0.0000    0.0000 N.3     1  UNL1       -0.1525
     12 C           0.0000    0.0000    0.0000 C.3     1  UNL1        0.1220
     13 C           0.0000    0.0000    0.0000 C.ar    1  UNL1       -0.0044
     14 C           0.0000    0.0000    0.0000 C.ar    1  UNL1       -0.0020
     15 C           0.0000    0.0000    0.0000 C.ar    1  UNL1        0.0111
     16 C           0.0000    0.0000    0.0000 C.ar    1  UNL1        0.0577
     17 CL          0.0000    0.0000    0.0000 Cl      1  UNL1       -0.0822
     18 C           0.0000    0.0000    0.0000 C.ar    1  UNL1        0.0111
     19 C           0.0000    0.0000    0.0000 C.ar    1  UNL1       -0.0020
     20 C           0.0000    0.0000    0.0000 C.3     1  UNL1        0.0799
     21 C           0.0000    0.0000    0.0000 C.3     1  UNL1        0.0177
     22 C           0.0000    0.0000    0.0000 C.3     1  UNL1        0.0015
     23 C           0.0000    0.0000    0.0000 C.3     1  UNL1        0.0015
     24 C           0.0000    0.0000    0.0000 C.3     1  UNL1        0.0177
     25 C           0.0000    0.0000    0.0000 C.ar    1  UNL1        0.0213
     26 C           0.0000    0.0000    0.0000 C.ar    1  UNL1        0.0213
     27 N           0.0000    0.0000    0.0000 N.3     1  UNL1       -0.1511
     28 C           0.0000    0.0000    0.0000 C.3     1  UNL1        0.1221
     29 C           0.0000    0.0000    0.0000 C.ar    1  UNL1       -0.0045
     30 C           0.0000    0.0000    0.0000 C.ar    1  UNL1       -0.0029
     31 C           0.0000    0.0000    0.0000 C.ar    1  UNL1       -0.0003
     32 C           0.0000    0.0000    0.0000 C.ar    1  UNL1       -0.0000
     33 C           0.0000    0.0000    0.0000 C.ar    1  UNL1       -0.0003
     34 C           0.0000    0.0000    0.0000 C.ar    1  UNL1       -0.0029
     35 C           0.0000    0.0000    0.0000 C.3     1  UNL1        0.0962
     36 C           0.0000    0.0000    0.0000 C.3     1  UNL1        0.0206
     37 C           0.0000    0.0000    0.0000 C.3     1  UNL1        0.0203
     38 C           0.0000    0.0000    0.0000 C.3     1  UNL1        0.0887
     39 N           0.0000    0.0000    0.0000 N.3     1  UNL1       -0.2180
     40 C           0.0000    0.0000    0.0000 C.3     1  UNL1        0.0887
     41 C           0.0000    0.0000    0.0000 C.3     1  UNL1        0.0203
@<TRIPOS>BOND
     1     1     2    2
     2     2     3    2
     3     2     4    1
     4     4     5   ar
     5     5     6   ar
     6     6     7   ar
     7     7     8    1
     8     8     9    2
     9     8    10    2
    10     8    11    1
    11    11    12    1
    12    12    13    1
    13    13    14   ar
    14    14    15   ar
    15    15    16   ar
    16    16    17    1
    17    16    18   ar
    18    18    19   ar
    19    13    19   ar
    20    11    20    1
    21    20    21    1
    22    21    22    1
    23    22    23    1
    24    23    24    1
    25    20    24    1
    26     7    25   ar
    27    25    26   ar
    28     4    26   ar
    29     2    27    1
    30    27    28    1
    31    28    29    1
    32    29    30   ar
    33    30    31   ar
    34    31    32   ar
    35    32    33   ar
    36    33    34   ar
    37    29    34   ar
    38    27    35    1
    39    35    36    1
    40    36    37    1
    41    37    38    1
    42    38    39    1
    43    39    40    1
    44    40    41    1
    45    36    41    1
