@<TRIPOS>MOLECULE
*****
 30 33 0 0 0
SMALL
GASTEIGER

@<TRIPOS>ATOM
      1 C           0.0000    0.0000    0.0000 C.3     1  UNL1        0.0001
      2 C           0.0000    0.0000    0.0000 C.3     1  UNL1        0.0019
      3 C           0.0000    0.0000    0.0000 C.3     1  UNL1        0.0226
      4 C           0.0000    0.0000    0.0000 C.3     1  UNL1        0.0019
      5 C           0.0000    0.0000    0.0000 C.3     1  UNL1        0.0001
      6 C           0.0000    0.0000    0.0000 C.3     1  UNL1        0.1083
      7 C           0.0000    0.0000    0.0000 C.3     1  UNL1        0.0478
      8 C           0.0000    0.0000    0.0000 C.3     1  UNL1        0.1158
      9 N           0.0000    0.0000    0.0000 N.pl3   1  UNL1       -0.2203
     10 C           0.0000    0.0000    0.0000 C.ar    1  UNL1        0.1503
     11 C           0.0000    0.0000    0.0000 C.ar    1  UNL1        0.1085
     12 C           0.0000    0.0000    0.0000 C.2     1  UNL1        0.2885
     13 N           0.0000    0.0000    0.0000 N.am    1  UNL1       -0.0836
     14 O           0.0000    0.0000    0.0000 O.2     1  UNL1       -0.2665
     15 C           0.0000    0.0000    0.0000 C.ar    1  UNL1        0.1081
     16 C           0.0000    0.0000    0.0000 C.ar    1  UNL1        0.0198
     17 C           0.0000    0.0000    0.0000 C.ar    1  UNL1        0.0047
     18 C           0.0000    0.0000    0.0000 C.ar    1  UNL1        0.0375
     19 C           0.0000    0.0000    0.0000 C.ar    1  UNL1        0.1453
     20 O           0.0000    0.0000    0.0000 O.3     1  UNL1       -0.4535
     21 C           0.0000    0.0000    0.0000 C.ar    1  UNL1        0.1453
     22 C           0.0000    0.0000    0.0000 C.ar    1  UNL1        0.0375
     23 C           0.0000    0.0000    0.0000 C.ar    1  UNL1        0.0031
     24 C           0.0000    0.0000    0.0000 C.ar    1  UNL1        0.0002
     25 C           0.0000    0.0000    0.0000 C.ar    1  UNL1        0.0031
     26 C           0.0000    0.0000    0.0000 C.ar    1  UNL1        0.0375
     27 C           0.0000    0.0000    0.0000 C.ar    1  UNL1        0.0375
     28 C           0.0000    0.0000    0.0000 C.ar    1  UNL1        0.0047
     29 N           0.0000    0.0000    0.0000 N.ar    1  UNL1       -0.1680
     30 N           0.0000    0.0000    0.0000 N.ar    1  UNL1       -0.2381
@<TRIPOS>BOND
     1     1     2    1
     2     2     3    1
     3     3     4    1
     4     4     5    1
     5     3     6    1
     6     6     7    1
     7     7     8    1
     8     8     9    1
     9     9    10    1
    10    10    11   ar
    11    11    12    1
    12    12    13   am
    13    12    14    2
    14    11    15   ar
    15    15    16    1
    16    16    17   ar
    17    17    18   ar
    18    18    19   ar
    19    19    20    1
    20    20    21    1
    21    21    22   ar
    22    22    23   ar
    23    23    24   ar
    24    24    25   ar
    25    25    26   ar
    26    21    26   ar
    27    19    27   ar
    28    27    28   ar
    29    16    28   ar
    30    15    29   ar
    31    29    30   ar
    32    10    30   ar
    33     6    30    1
