@<TRIPOS>MOLECULE
*****
 30 32 0 0 0
SMALL
GASTEIGER

@<TRIPOS>ATOM
      1 C           0.0000    0.0000    0.0000 C.3     1  UNL1        0.1388
      2 N           0.0000    0.0000    0.0000 N.am    1  UNL1       -0.1998
      3 C           0.0000    0.0000    0.0000 C.2     1  UNL1        0.2649
      4 O           0.0000    0.0000    0.0000 O.2     1  UNL1       -0.2684
      5 C           0.0000    0.0000    0.0000 C.ar    1  UNL1        0.0565
      6 C           0.0000    0.0000    0.0000 C.ar    1  UNL1        0.0043
      7 C           0.0000    0.0000    0.0000 C.ar    1  UNL1       -0.0027
      8 C           0.0000    0.0000    0.0000 C.ar    1  UNL1       -0.0056
      9 C           0.0000    0.0000    0.0000 C.3     1  UNL1        0.0326
     10 C           0.0000    0.0000    0.0000 C.ar    1  UNL1        0.0627
     11 N           0.0000    0.0000    0.0000 N.ar    1  UNL1       -0.2779
     12 C           0.0000    0.0000    0.0000 C.ar    1  UNL1        0.0476
     13 C           0.0000    0.0000    0.0000 C.3     1  UNL1        0.0506
     14 C           0.0000    0.0000    0.0000 C.ar    1  UNL1        0.0507
     15 C           0.0000    0.0000    0.0000 C.ar    1  UNL1        0.1509
     16 O           0.0000    0.0000    0.0000 O.3     1  UNL1       -0.4699
     17 C           0.0000    0.0000    0.0000 C.3     1  UNL1        0.2342
     18 C           0.0000    0.0000    0.0000 C.ar    1  UNL1        0.0488
     19 C           0.0000    0.0000    0.0000 C.ar    1  UNL1        0.0039
     20 C           0.0000    0.0000    0.0000 C.ar    1  UNL1        0.0296
     21 C           0.0000    0.0000    0.0000 C.ar    1  UNL1        0.1424
     22 F           0.0000    0.0000    0.0000 F       1  UNL1       -0.2041
     23 C           0.0000    0.0000    0.0000 C.ar    1  UNL1        0.0590
     24 C           0.0000    0.0000    0.0000 C.ar    1  UNL1        0.1418
     25 F           0.0000    0.0000    0.0000 F       1  UNL1       -0.2043
     26 C           0.0000    0.0000    0.0000 C.ar    1  UNL1        0.1248
     27 BR          0.0000    0.0000    0.0000 Br      1  UNL1       -0.0408
     28 C           0.0000    0.0000    0.0000 C.ar    1  UNL1        0.2736
     29 O           0.0000    0.0000    0.0000 O.2     1  UNL1       -0.2660
     30 C           0.0000    0.0000    0.0000 C.ar    1  UNL1        0.0218
@<TRIPOS>BOND
     1     1     2    1
     2     2     3   am
     3     3     4    2
     4     3     5    1
     5     5     6   ar
     6     6     7   ar
     7     7     8   ar
     8     8     9    1
     9     8    10   ar
    10    10    11    1
    11    11    12   ar
    12    12    13    1
    13    12    14   ar
    14    14    15   ar
    15    15    16    1
    16    16    17    1
    17    17    18    1
    18    18    19   ar
    19    19    20   ar
    20    20    21   ar
    21    21    22    1
    22    21    23   ar
    23    23    24   ar
    24    18    24   ar
    25    24    25    1
    26    15    26   ar
    27    26    27    1
    28    26    28   ar
    29    11    28   ar
    30    28    29    2
    31    10    30   ar
    32     5    30   ar
