@<TRIPOS>MOLECULE
*****
 24 26 0 0 0
SMALL
GASTEIGER

@<TRIPOS>ATOM
      1 C           0.0000    0.0000    0.0000 C.3     1  UNL1        0.0507
      2 C           0.0000    0.0000    0.0000 C.ar    1  UNL1        0.0470
      3 C           0.0000    0.0000    0.0000 C.ar    1  UNL1        0.0811
      4 C           0.0000    0.0000    0.0000 C.1     1  UNL1        0.1016
      5 N           0.0000    0.0000    0.0000 N.1     1  UNL1       -0.1908
      6 C           0.0000    0.0000    0.0000 C.ar    1  UNL1        0.0224
      7 C           0.0000    0.0000    0.0000 C.ar    1  UNL1        0.0018
      8 C           0.0000    0.0000    0.0000 C.ar    1  UNL1        0.0007
      9 C           0.0000    0.0000    0.0000 C.ar    1  UNL1        0.0103
     10 C           0.0000    0.0000    0.0000 C.ar    1  UNL1        0.0684
     11 C           0.0000    0.0000    0.0000 C.1     1  UNL1        0.1004
     12 N           0.0000    0.0000    0.0000 N.1     1  UNL1       -0.1908
     13 C           0.0000    0.0000    0.0000 C.ar    1  UNL1        0.0103
     14 C           0.0000    0.0000    0.0000 C.ar    1  UNL1        0.0007
     15 C           0.0000    0.0000    0.0000 C.ar    1  UNL1        0.0381
     16 C           0.0000    0.0000    0.0000 C.3     1  UNL1        0.0500
     17 N           0.0000    0.0000    0.0000 N.ar    1  UNL1       -0.3292
     18 C           0.0000    0.0000    0.0000 C.3     1  UNL1        0.1321
     19 C           0.0000    0.0000    0.0000 C.ar    1  UNL1        0.0004
     20 C           0.0000    0.0000    0.0000 C.ar    1  UNL1       -0.0024
     21 C           0.0000    0.0000    0.0000 C.ar    1  UNL1       -0.0003
     22 C           0.0000    0.0000    0.0000 C.ar    1  UNL1       -0.0000
     23 C           0.0000    0.0000    0.0000 C.ar    1  UNL1       -0.0003
     24 C           0.0000    0.0000    0.0000 C.ar    1  UNL1       -0.0024
@<TRIPOS>BOND
     1     1     2    1
     2     2     3   ar
     3     3     4    1
     4     4     5    3
     5     3     6   ar
     6     6     7    1
     7     7     8   ar
     8     8     9   ar
     9     9    10   ar
    10    10    11    1
    11    11    12    3
    12    10    13   ar
    13    13    14   ar
    14     7    14   ar
    15     6    15   ar
    16    15    16    1
    17    15    17   ar
    18     2    17   ar
    19    17    18    1
    20    18    19    1
    21    19    20   ar
    22    20    21   ar
    23    21    22   ar
    24    22    23   ar
    25    23    24   ar
    26    19    24   ar
