@<TRIPOS>MOLECULE
*****
 29 31 0 0 0
SMALL
GASTEIGER

@<TRIPOS>ATOM
      1 C           0.0000    0.0000    0.0000 C.3     1  UNL1        0.0018
      2 C           0.0000    0.0000    0.0000 C.3     1  UNL1        0.0217
      3 C           0.0000    0.0000    0.0000 C.3     1  UNL1        0.0956
      4 C           0.0000    0.0000    0.0000 C.3     1  UNL1        0.0217
      5 C           0.0000    0.0000    0.0000 C.3     1  UNL1        0.0018
      6 N           0.0000    0.0000    0.0000 N.am    1  UNL1       -0.2034
      7 C           0.0000    0.0000    0.0000 C.2     1  UNL1        0.2675
      8 O           0.0000    0.0000    0.0000 O.2     1  UNL1       -0.2683
      9 C           0.0000    0.0000    0.0000 C.ar    1  UNL1        0.0891
     10 C           0.0000    0.0000    0.0000 C.ar    1  UNL1        0.1064
     11 N           0.0000    0.0000    0.0000 N.ar    1  UNL1       -0.2261
     12 C           0.0000    0.0000    0.0000 C.ar    1  UNL1        0.1501
     13 N           0.0000    0.0000    0.0000 N.ar    1  UNL1       -0.2752
     14 C           0.0000    0.0000    0.0000 C.ar    1  UNL1        0.0829
     15 C           0.0000    0.0000    0.0000 C.ar    1  UNL1        0.0221
     16 C           0.0000    0.0000    0.0000 C.ar    1  UNL1        0.0367
     17 C           0.0000    0.0000    0.0000 C.ar    1  UNL1        0.0149
     18 C           0.0000    0.0000    0.0000 C.ar    1  UNL1        0.0877
     19 C           0.0000    0.0000    0.0000 C.1     1  UNL1        0.1020
     20 N           0.0000    0.0000    0.0000 N.1     1  UNL1       -0.1908
     21 C           0.0000    0.0000    0.0000 C.ar    1  UNL1        0.1107
     22 N           0.0000    0.0000    0.0000 N.ar    1  UNL1       -0.2257
     23 C           0.0000    0.0000    0.0000 C.ar    1  UNL1        0.1488
     24 C           0.0000    0.0000    0.0000 C.ar    1  UNL1        0.0537
     25 C           0.0000    0.0000    0.0000 C.ar    1  UNL1        0.0742
     26 N           0.0000    0.0000    0.0000 N.pl3   1  UNL1       -0.2391
     27 C           0.0000    0.0000    0.0000 C.3     1  UNL1        0.0926
     28 C           0.0000    0.0000    0.0000 C.3     1  UNL1        0.0233
     29 C           0.0000    0.0000    0.0000 C.3     1  UNL1        0.0233
@<TRIPOS>BOND
     1     1     2    1
     2     2     3    1
     3     3     4    1
     4     4     5    1
     5     3     6    1
     6     6     7   am
     7     7     8    2
     8     7     9    1
     9     9    10   ar
    10    10    11   ar
    11    11    12   ar
    12    12    13    1
    13    13    14   ar
    14    14    15   ar
    15    15    16   ar
    16    16    17   ar
    17    17    18   ar
    18    18    19    1
    19    19    20    3
    20    18    21   ar
    21    21    22   ar
    22    22    23   ar
    23    16    23   ar
    24    13    23   ar
    25    12    24   ar
    26    24    25   ar
    27     9    25   ar
    28    25    26    1
    29    26    27    1
    30    27    28    1
    31    27    29    1
