@<TRIPOS>MOLECULE
*****
 33 37 0 0 0
SMALL
GASTEIGER

@<TRIPOS>ATOM
      1 N           0.0000    0.0000    0.0000 N.am    1  UNL1       -0.0836
      2 C           0.0000    0.0000    0.0000 C.2     1  UNL1        0.2885
      3 O           0.0000    0.0000    0.0000 O.2     1  UNL1       -0.2665
      4 C           0.0000    0.0000    0.0000 C.ar    1  UNL1        0.1085
      5 C           0.0000    0.0000    0.0000 C.ar    1  UNL1        0.1081
      6 C           0.0000    0.0000    0.0000 C.ar    1  UNL1        0.0198
      7 C           0.0000    0.0000    0.0000 C.ar    1  UNL1        0.0047
      8 C           0.0000    0.0000    0.0000 C.ar    1  UNL1        0.0375
      9 C           0.0000    0.0000    0.0000 C.ar    1  UNL1        0.1453
     10 O           0.0000    0.0000    0.0000 O.3     1  UNL1       -0.4535
     11 C           0.0000    0.0000    0.0000 C.ar    1  UNL1        0.1453
     12 C           0.0000    0.0000    0.0000 C.ar    1  UNL1        0.0375
     13 C           0.0000    0.0000    0.0000 C.ar    1  UNL1        0.0031
     14 C           0.0000    0.0000    0.0000 C.ar    1  UNL1        0.0002
     15 C           0.0000    0.0000    0.0000 C.ar    1  UNL1        0.0031
     16 C           0.0000    0.0000    0.0000 C.ar    1  UNL1        0.0375
     17 C           0.0000    0.0000    0.0000 C.ar    1  UNL1        0.0375
     18 C           0.0000    0.0000    0.0000 C.ar    1  UNL1        0.0047
     19 N           0.0000    0.0000    0.0000 N.ar    1  UNL1       -0.1680
     20 N           0.0000    0.0000    0.0000 N.ar    1  UNL1       -0.2381
     21 C           0.0000    0.0000    0.0000 C.ar    1  UNL1        0.1503
     22 N           0.0000    0.0000    0.0000 N.pl3   1  UNL1       -0.2203
     23 C           0.0000    0.0000    0.0000 C.3     1  UNL1        0.1158
     24 C           0.0000    0.0000    0.0000 C.3     1  UNL1        0.0478
     25 C           0.0000    0.0000    0.0000 C.3     1  UNL1        0.1084
     26 C           0.0000    0.0000    0.0000 C.3     1  UNL1        0.0260
     27 C           0.0000    0.0000    0.0000 C.3     1  UNL1        0.0235
     28 C           0.0000    0.0000    0.0000 C.3     1  UNL1        0.0939
     29 N           0.0000    0.0000    0.0000 N.am    1  UNL1       -0.2724
     30 C           0.0000    0.0000    0.0000 C.2     1  UNL1        0.3029
     31 O           0.0000    0.0000    0.0000 O.2     1  UNL1       -0.2649
     32 C           0.0000    0.0000    0.0000 C.3     1  UNL1        0.0939
     33 C           0.0000    0.0000    0.0000 C.3     1  UNL1        0.0235
@<TRIPOS>BOND
     1     1     2   am
     2     2     3    2
     3     2     4    1
     4     4     5   ar
     5     5     6    1
     6     6     7   ar
     7     7     8   ar
     8     8     9   ar
     9     9    10    1
    10    10    11    1
    11    11    12   ar
    12    12    13   ar
    13    13    14   ar
    14    14    15   ar
    15    15    16   ar
    16    11    16   ar
    17     9    17   ar
    18    17    18   ar
    19     6    18   ar
    20     5    19   ar
    21    19    20   ar
    22    20    21   ar
    23     4    21   ar
    24    21    22    1
    25    22    23    1
    26    23    24    1
    27    24    25    1
    28    20    25    1
    29    25    26    1
    30    26    27    1
    31    27    28    1
    32    28    29    1
    33    29    30   am
    34    30    31    2
    35    29    32    1
    36    32    33    1
    37    26    33    1
