@<TRIPOS>MOLECULE
*****
 36 39 0 0 0
SMALL
GASTEIGER

@<TRIPOS>ATOM
      1 N           0.0000    0.0000    0.0000 N.3     1  UNL1       -0.1228
      2 C           0.0000    0.0000    0.0000 C.3     1  UNL1        0.1721
      3 C           0.0000    0.0000    0.0000 C.3     1  UNL1        0.0547
      4 C           0.0000    0.0000    0.0000 C.ar    1  UNL1       -0.0202
      5 C           0.0000    0.0000    0.0000 C.ar    1  UNL1       -0.0042
      6 C           0.0000    0.0000    0.0000 C.ar    1  UNL1       -0.0003
      7 C           0.0000    0.0000    0.0000 C.ar    1  UNL1       -0.0000
      8 C           0.0000    0.0000    0.0000 C.ar    1  UNL1       -0.0003
      9 C           0.0000    0.0000    0.0000 C.ar    1  UNL1       -0.0042
     10 C           0.0000    0.0000    0.0000 C.2     1  UNL1        0.2439
     11 O           0.0000    0.0000    0.0000 O.2     1  UNL1       -0.2733
     12 N           0.0000    0.0000    0.0000 N.am    1  UNL1       -0.2699
     13 C           0.0000    0.0000    0.0000 C.3     1  UNL1        0.1236
     14 C           0.0000    0.0000    0.0000 C.2     1  UNL1        0.0364
     15 C           0.0000    0.0000    0.0000 C.2     1  UNL1        0.0006
     16 C           0.0000    0.0000    0.0000 C.ar    1  UNL1        0.0007
     17 C           0.0000    0.0000    0.0000 C.ar    1  UNL1        0.0009
     18 C           0.0000    0.0000    0.0000 C.ar    1  UNL1        0.0122
     19 C           0.0000    0.0000    0.0000 C.ar    1  UNL1        0.0682
     20 CL          0.0000    0.0000    0.0000 Cl      1  UNL1       -0.0814
     21 C           0.0000    0.0000    0.0000 C.ar    1  UNL1        0.0682
     22 CL          0.0000    0.0000    0.0000 Cl      1  UNL1       -0.0814
     23 C           0.0000    0.0000    0.0000 C.ar    1  UNL1        0.0122
     24 C           0.0000    0.0000    0.0000 C.2     1  UNL1        0.1909
     25 O           0.0000    0.0000    0.0000 O.2     1  UNL1       -0.2871
     26 C           0.0000    0.0000    0.0000 C.2     1  UNL1        0.0364
     27 C           0.0000    0.0000    0.0000 C.2     1  UNL1        0.0006
     28 C           0.0000    0.0000    0.0000 C.ar    1  UNL1        0.0007
     29 C           0.0000    0.0000    0.0000 C.ar    1  UNL1        0.0009
     30 C           0.0000    0.0000    0.0000 C.ar    1  UNL1        0.0122
     31 C           0.0000    0.0000    0.0000 C.ar    1  UNL1        0.0682
     32 CL          0.0000    0.0000    0.0000 Cl      1  UNL1       -0.0814
     33 C           0.0000    0.0000    0.0000 C.ar    1  UNL1        0.0682
     34 CL          0.0000    0.0000    0.0000 Cl      1  UNL1       -0.0814
     35 C           0.0000    0.0000    0.0000 C.ar    1  UNL1        0.0122
     36 C           0.0000    0.0000    0.0000 C.3     1  UNL1        0.1236
@<TRIPOS>BOND
     1     1     2    1
     2     2     3    1
     3     3     4    1
     4     4     5   ar
     5     5     6   ar
     6     6     7   ar
     7     7     8   ar
     8     8     9   ar
     9     4     9   ar
    10     2    10    1
    11    10    11    2
    12    10    12   am
    13    12    13    1
    14    13    14    1
    15    14    15    2
    16    15    16    1
    17    16    17   ar
    18    17    18   ar
    19    18    19   ar
    20    19    20    1
    21    19    21   ar
    22    21    22    1
    23    21    23   ar
    24    16    23   ar
    25    14    24    1
    26    24    25    2
    27    24    26    1
    28    26    27    2
    29    27    28    1
    30    28    29   ar
    31    29    30   ar
    32    30    31   ar
    33    31    32    1
    34    31    33   ar
    35    33    34    1
    36    33    35   ar
    37    28    35   ar
    38    26    36    1
    39    12    36    1
