@<TRIPOS>MOLECULE
*****
 28 30 0 0 0
SMALL
GASTEIGER

@<TRIPOS>ATOM
      1 C           0.0000    0.0000    0.0000 C.3     1  UNL1        0.0018
      2 C           0.0000    0.0000    0.0000 C.3     1  UNL1        0.0214
      3 C           0.0000    0.0000    0.0000 C.3     1  UNL1        0.0907
      4 N           0.0000    0.0000    0.0000 N.pl3   1  UNL1       -0.3091
      5 C           0.0000    0.0000    0.0000 C.ar    1  UNL1        0.0487
      6 C           0.0000    0.0000    0.0000 C.ar    1  UNL1        0.0153
      7 C           0.0000    0.0000    0.0000 C.ar    1  UNL1        0.0124
      8 C           0.0000    0.0000    0.0000 C.ar    1  UNL1        0.0791
      9 C           0.0000    0.0000    0.0000 C.1     1  UNL1        0.1013
     10 N           0.0000    0.0000    0.0000 N.1     1  UNL1       -0.1908
     11 C           0.0000    0.0000    0.0000 C.ar    1  UNL1        0.0685
     12 CL          0.0000    0.0000    0.0000 Cl      1  UNL1       -0.0815
     13 C           0.0000    0.0000    0.0000 C.ar    1  UNL1        0.0266
     14 C           0.0000    0.0000    0.0000 C.3     1  UNL1        0.0729
     15 C           0.0000    0.0000    0.0000 C.3     1  UNL1        0.0215
     16 C           0.0000    0.0000    0.0000 C.3     1  UNL1        0.0234
     17 C           0.0000    0.0000    0.0000 C.3     1  UNL1        0.0957
     18 N           0.0000    0.0000    0.0000 N.am    1  UNL1       -0.2034
     19 C           0.0000    0.0000    0.0000 C.2     1  UNL1        0.2647
     20 O           0.0000    0.0000    0.0000 O.2     1  UNL1       -0.2684
     21 C           0.0000    0.0000    0.0000 C.ar    1  UNL1        0.0550
     22 C           0.0000    0.0000    0.0000 C.ar    1  UNL1        0.0046
     23 C           0.0000    0.0000    0.0000 C.ar    1  UNL1        0.0001
     24 C           0.0000    0.0000    0.0000 C.ar    1  UNL1        0.0000
     25 C           0.0000    0.0000    0.0000 C.ar    1  UNL1        0.0001
     26 C           0.0000    0.0000    0.0000 C.ar    1  UNL1        0.0046
     27 C           0.0000    0.0000    0.0000 C.3     1  UNL1        0.0234
     28 C           0.0000    0.0000    0.0000 C.3     1  UNL1        0.0215
@<TRIPOS>BOND
     1     1     2    1
     2     2     3    1
     3     3     4    1
     4     4     5    1
     5     5     6   ar
     6     6     7   ar
     7     7     8   ar
     8     8     9    1
     9     9    10    3
    10     8    11   ar
    11    11    12    1
    12    11    13   ar
    13     5    13   ar
    14     4    14    1
    15    14    15    1
    16    15    16    1
    17    16    17    1
    18    17    18    1
    19    18    19   am
    20    19    20    2
    21    19    21    1
    22    21    22   ar
    23    22    23   ar
    24    23    24   ar
    25    24    25   ar
    26    25    26   ar
    27    21    26   ar
    28    17    27    1
    29    27    28    1
    30    14    28    1
