@<TRIPOS>MOLECULE
*****
 24 26 0 0 0
SMALL
GASTEIGER

@<TRIPOS>ATOM
      1 C           0.0000    0.0000    0.0000 C.3     1  UNL1        0.2525
      2 O           0.0000    0.0000    0.0000 O.3     1  UNL1       -0.4713
      3 C           0.0000    0.0000    0.0000 C.ar    1  UNL1        0.1433
      4 C           0.0000    0.0000    0.0000 C.ar    1  UNL1        0.0417
      5 C           0.0000    0.0000    0.0000 C.ar    1  UNL1        0.0559
      6 C           0.0000    0.0000    0.0000 C.ar    1  UNL1        0.2248
      7 O           0.0000    0.0000    0.0000 O.3     1  UNL1       -0.4583
      8 C           0.0000    0.0000    0.0000 C.3     1  UNL1        0.2285
      9 C           0.0000    0.0000    0.0000 C.3     1  UNL1        0.1394
     10 C           0.0000    0.0000    0.0000 C.3     1  UNL1        0.0351
     11 C           0.0000    0.0000    0.0000 C.3     1  UNL1        0.0887
     12 C           0.0000    0.0000    0.0000 C.2     1  UNL1        0.2415
     13 O           0.0000    0.0000    0.0000 O.2     1  UNL1       -0.2733
     14 N           0.0000    0.0000    0.0000 N.am    1  UNL1       -0.2033
     15 N           0.0000    0.0000    0.0000 N.ar    1  UNL1       -0.2105
     16 C           0.0000    0.0000    0.0000 C.ar    1  UNL1        0.0978
     17 C           0.0000    0.0000    0.0000 C.ar    1  UNL1       -0.0025
     18 C           0.0000    0.0000    0.0000 C.3     1  UNL1        0.0327
     19 C           0.0000    0.0000    0.0000 C.ar    1  UNL1        0.0024
     20 C           0.0000    0.0000    0.0000 C.ar    1  UNL1        0.0076
     21 C           0.0000    0.0000    0.0000 C.ar    1  UNL1        0.0905
     22 C           0.0000    0.0000    0.0000 C.2     1  UNL1        0.2871
     23 N           0.0000    0.0000    0.0000 N.am    1  UNL1       -0.0836
     24 O           0.0000    0.0000    0.0000 O.2     1  UNL1       -0.2666
@<TRIPOS>BOND
     1     1     2    1
     2     2     3    1
     3     3     4   ar
     4     4     5   ar
     5     5     6   ar
     6     6     7    1
     7     7     8    1
     8     8     9    1
     9     9    10    1
    10    10    11    1
    11    11    12    1
    12    12    13    2
    13    12    14   am
    14     9    14    1
    15     6    15   ar
    16    15    16   ar
    17    16    17   ar
    18    17    18    1
    19    17    19   ar
    20     5    19   ar
    21    19    20   ar
    22    20    21   ar
    23     3    21   ar
    24    21    22    1
    25    22    23   am
    26    22    24    2
