@<TRIPOS>MOLECULE
*****
 30 34 0 0 0
SMALL
GASTEIGER

@<TRIPOS>ATOM
      1 C           0.0000    0.0000    0.0000 C.3     1  UNL1        0.0246
      2 C           0.0000    0.0000    0.0000 C.3     1  UNL1        0.0885
      3 C           0.0000    0.0000    0.0000 C.3     1  UNL1        0.0246
      4 N           0.0000    0.0000    0.0000 N.ar    1  UNL1       -0.2962
      5 C           0.0000    0.0000    0.0000 C.ar    1  UNL1        0.1797
      6 N           0.0000    0.0000    0.0000 N.ar    1  UNL1       -0.2194
      7 C           0.0000    0.0000    0.0000 C.ar    1  UNL1        0.1500
      8 C           0.0000    0.0000    0.0000 C.ar    1  UNL1        0.1716
      9 N           0.0000    0.0000    0.0000 N.pl3   1  UNL1       -0.2106
     10 C           0.0000    0.0000    0.0000 C.3     1  UNL1        0.1790
     11 C           0.0000    0.0000    0.0000 C.ar    1  UNL1        0.1610
     12 N           0.0000    0.0000    0.0000 N.ar    1  UNL1       -0.2273
     13 C           0.0000    0.0000    0.0000 C.ar    1  UNL1        0.1025
     14 C           0.0000    0.0000    0.0000 C.ar    1  UNL1        0.0503
     15 C           0.0000    0.0000    0.0000 C.ar    1  UNL1        0.1417
     16 F           0.0000    0.0000    0.0000 F       1  UNL1       -0.2041
     17 C           0.0000    0.0000    0.0000 C.ar    1  UNL1        0.0313
     18 C           0.0000    0.0000    0.0000 C.ar    1  UNL1        0.0230
     19 C           0.0000    0.0000    0.0000 C.ar    1  UNL1        0.1005
     20 N           0.0000    0.0000    0.0000 N.ar    1  UNL1       -0.2274
     21 N           0.0000    0.0000    0.0000 N.ar    1  UNL1       -0.1955
     22 C           0.0000    0.0000    0.0000 C.ar    1  UNL1        0.2229
     23 N           0.0000    0.0000    0.0000 N.pl3   1  UNL1       -0.2730
     24 C           0.0000    0.0000    0.0000 C.3     1  UNL1        0.1257
     25 C           0.0000    0.0000    0.0000 C.3     1  UNL1        0.1637
     26 O           0.0000    0.0000    0.0000 O.3     1  UNL1       -0.3501
     27 C           0.0000    0.0000    0.0000 C.3     1  UNL1        0.1637
     28 C           0.0000    0.0000    0.0000 C.3     1  UNL1        0.1257
     29 N           0.0000    0.0000    0.0000 N.ar    1  UNL1       -0.1945
     30 C           0.0000    0.0000    0.0000 C.ar    1  UNL1        0.1684
@<TRIPOS>BOND
     1     1     2    1
     2     2     3    1
     3     2     4    1
     4     4     5   ar
     5     5     6   ar
     6     6     7   ar
     7     7     8   ar
     8     8     9    1
     9     9    10    1
    10    10    11    1
    11    11    12   ar
    12    12    13   ar
    13    13    14   ar
    14    14    15   ar
    15    15    16    1
    16    15    17   ar
    17    17    18   ar
    18    18    19   ar
    19    13    19   ar
    20    19    20   ar
    21    11    20   ar
    22     8    21   ar
    23    21    22   ar
    24    22    23    1
    25    23    24    1
    26    24    25    1
    27    25    26    1
    28    26    27    1
    29    27    28    1
    30    23    28    1
    31    22    29   ar
    32    29    30   ar
    33     7    30   ar
    34     4    30   ar
