@<TRIPOS>MOLECULE
*****
 30 33 0 0 0
SMALL
GASTEIGER

@<TRIPOS>ATOM
      1 C           0.0000    0.0000    0.0000 C.3     1  UNL1        0.2525
      2 O           0.0000    0.0000    0.0000 O.3     1  UNL1       -0.4701
      3 C           0.0000    0.0000    0.0000 C.ar    1  UNL1        0.1555
      4 C           0.0000    0.0000    0.0000 C.ar    1  UNL1        0.0591
      5 C           0.0000    0.0000    0.0000 C.ar    1  UNL1        0.1055
      6 N           0.0000    0.0000    0.0000 N.ar    1  UNL1       -0.1692
      7 N           0.0000    0.0000    0.0000 N.ar    1  UNL1       -0.2513
      8 C           0.0000    0.0000    0.0000 C.3     1  UNL1        0.1081
      9 C           0.0000    0.0000    0.0000 C.3     1  UNL1        0.0432
     10 C           0.0000    0.0000    0.0000 C.3     1  UNL1        0.0907
     11 N           0.0000    0.0000    0.0000 N.3     1  UNL1       -0.2179
     12 C           0.0000    0.0000    0.0000 C.3     1  UNL1        0.0907
     13 C           0.0000    0.0000    0.0000 C.3     1  UNL1        0.0432
     14 C           0.0000    0.0000    0.0000 C.ar    1  UNL1        0.0965
     15 C           0.0000    0.0000    0.0000 C.ar    1  UNL1        0.0396
     16 C           0.0000    0.0000    0.0000 C.ar    1  UNL1        0.0228
     17 C           0.0000    0.0000    0.0000 C.ar    1  UNL1        0.1077
     18 N           0.0000    0.0000    0.0000 N.am    1  UNL1       -0.1711
     19 C           0.0000    0.0000    0.0000 C.2     1  UNL1        0.2868
     20 O           0.0000    0.0000    0.0000 O.2     1  UNL1       -0.2663
     21 C           0.0000    0.0000    0.0000 C.ar    1  UNL1        0.1364
     22 C           0.0000    0.0000    0.0000 C.ar    1  UNL1        0.0238
     23 C           0.0000    0.0000    0.0000 C.ar    1  UNL1        0.0032
     24 C           0.0000    0.0000    0.0000 C.ar    1  UNL1        0.0231
     25 C           0.0000    0.0000    0.0000 C.ar    1  UNL1        0.1527
     26 C           0.0000    0.0000    0.0000 C.3     1  UNL1        0.4348
     27 F           0.0000    0.0000    0.0000 F       1  UNL1       -0.1644
     28 F           0.0000    0.0000    0.0000 F       1  UNL1       -0.1644
     29 F           0.0000    0.0000    0.0000 F       1  UNL1       -0.1644
     30 N           0.0000    0.0000    0.0000 N.ar    1  UNL1       -0.2367
@<TRIPOS>BOND
     1     1     2    1
     2     2     3    1
     3     3     4   ar
     4     4     5   ar
     5     5     6   ar
     6     6     7   ar
     7     7     8    1
     8     8     9    1
     9     9    10    1
    10    10    11    1
    11    11    12    1
    12    12    13    1
    13     8    13    1
    14     7    14   ar
    15    14    15   ar
    16     5    15   ar
    17    15    16   ar
    18    16    17   ar
    19     3    17   ar
    20    17    18    1
    21    18    19   am
    22    19    20    2
    23    19    21    1
    24    21    22   ar
    25    22    23   ar
    26    23    24   ar
    27    24    25   ar
    28    25    26    1
    29    26    27    1
    30    26    28    1
    31    26    29    1
    32    25    30   ar
    33    21    30   ar
