@<TRIPOS>MOLECULE
*****
 28 31 0 0 0
SMALL
GASTEIGER

@<TRIPOS>ATOM
      1 N           0.0000    0.0000    0.0000 N.am    1  UNL1       -0.0823
      2 C           0.0000    0.0000    0.0000 C.2     1  UNL1        0.3050
      3 O           0.0000    0.0000    0.0000 O.2     1  UNL1       -0.2649
      4 C           0.0000    0.0000    0.0000 C.ar    1  UNL1        0.1744
      5 N           0.0000    0.0000    0.0000 N.ar    1  UNL1       -0.1589
      6 N           0.0000    0.0000    0.0000 N.ar    1  UNL1       -0.2267
      7 C           0.0000    0.0000    0.0000 C.ar    1  UNL1        0.0829
      8 C           0.0000    0.0000    0.0000 C.ar    1  UNL1        0.0191
      9 C           0.0000    0.0000    0.0000 C.ar    1  UNL1        0.0015
     10 C           0.0000    0.0000    0.0000 C.ar    1  UNL1        0.0001
     11 C           0.0000    0.0000    0.0000 C.ar    1  UNL1        0.0015
     12 C           0.0000    0.0000    0.0000 C.ar    1  UNL1        0.0191
     13 C           0.0000    0.0000    0.0000 C.ar    1  UNL1        0.1186
     14 C           0.0000    0.0000    0.0000 C.ar    1  UNL1        0.1167
     15 N           0.0000    0.0000    0.0000 N.am    1  UNL1       -0.1707
     16 C           0.0000    0.0000    0.0000 C.2     1  UNL1        0.2901
     17 O           0.0000    0.0000    0.0000 O.2     1  UNL1       -0.2662
     18 C           0.0000    0.0000    0.0000 C.ar    1  UNL1        0.1770
     19 C           0.0000    0.0000    0.0000 C.ar    1  UNL1        0.2052
     20 O           0.0000    0.0000    0.0000 O.2     1  UNL1       -0.4313
     21 C           0.0000    0.0000    0.0000 C.ar    1  UNL1        0.2300
     22 C           0.0000    0.0000    0.0000 C.ar    1  UNL1        0.0567
     23 C           0.0000    0.0000    0.0000 C.ar    1  UNL1        0.0253
     24 C           0.0000    0.0000    0.0000 C.ar    1  UNL1        0.0990
     25 N           0.0000    0.0000    0.0000 N.ar    1  UNL1       -0.2423
     26 C           0.0000    0.0000    0.0000 C.ar    1  UNL1        0.0990
     27 C           0.0000    0.0000    0.0000 C.ar    1  UNL1        0.0253
     28 N           0.0000    0.0000    0.0000 N.ar    1  UNL1       -0.2034
@<TRIPOS>BOND
     1     1     2   am
     2     2     3    2
     3     2     4    1
     4     4     5   ar
     5     5     6   ar
     6     6     7    1
     7     7     8   ar
     8     8     9   ar
     9     9    10   ar
    10    10    11   ar
    11    11    12   ar
    12     7    12   ar
    13     6    13   ar
    14    13    14   ar
    15     4    14   ar
    16    14    15    1
    17    15    16   am
    18    16    17    2
    19    16    18    1
    20    18    19   ar
    21    19    20   ar
    22    20    21   ar
    23    21    22    1
    24    22    23   ar
    25    23    24   ar
    26    24    25   ar
    27    25    26   ar
    28    26    27   ar
    29    22    27   ar
    30    21    28   ar
    31    18    28   ar
