@<TRIPOS>MOLECULE
*****
 31 34 0 0 0
SMALL
GASTEIGER

@<TRIPOS>ATOM
      1 C           0.0000    0.0000    0.0000 C.3     1  UNL1        0.0900
      2 C           0.0000    0.0000    0.0000 C.1     1  UNL1       -0.0882
      3 C           0.0000    0.0000    0.0000 C.1     1  UNL1       -0.0670
      4 C           0.0000    0.0000    0.0000 C.3     1  UNL1        0.1902
      5 N           0.0000    0.0000    0.0000 N.am    1  UNL1       -0.1909
      6 C           0.0000    0.0000    0.0000 C.2     1  UNL1        0.2447
      7 O           0.0000    0.0000    0.0000 O.2     1  UNL1       -0.2732
      8 C           0.0000    0.0000    0.0000 C.3     1  UNL1        0.1189
      9 C           0.0000    0.0000    0.0000 C.3     1  UNL1        0.1707
     10 N           0.0000    0.0000    0.0000 N.2     1  UNL1       -0.2641
     11 C           0.0000    0.0000    0.0000 C.2     1  UNL1        0.0780
     12 C           0.0000    0.0000    0.0000 C.ar    1  UNL1        0.0174
     13 C           0.0000    0.0000    0.0000 C.ar    1  UNL1        0.0023
     14 C           0.0000    0.0000    0.0000 C.ar    1  UNL1        0.0114
     15 C           0.0000    0.0000    0.0000 C.ar    1  UNL1        0.0577
     16 CL          0.0000    0.0000    0.0000 Cl      1  UNL1       -0.0822
     17 C           0.0000    0.0000    0.0000 C.ar    1  UNL1        0.0114
     18 C           0.0000    0.0000    0.0000 C.ar    1  UNL1        0.0023
     19 C           0.0000    0.0000    0.0000 C.ar    1  UNL1        0.0359
     20 C           0.0000    0.0000    0.0000 C.ar    1  UNL1        0.0970
     21 S           0.0000    0.0000    0.0000 S.2     1  UNL1       -0.0740
     22 C           0.0000    0.0000    0.0000 C.ar    1  UNL1        0.0051
     23 C           0.0000    0.0000    0.0000 C.3     1  UNL1        0.0379
     24 C           0.0000    0.0000    0.0000 C.ar    1  UNL1       -0.0165
     25 C           0.0000    0.0000    0.0000 C.3     1  UNL1        0.0313
     26 N           0.0000    0.0000    0.0000 N.ar    1  UNL1       -0.2736
     27 C           0.0000    0.0000    0.0000 C.ar    1  UNL1        0.1477
     28 C           0.0000    0.0000    0.0000 C.3     1  UNL1        0.0742
     29 N           0.0000    0.0000    0.0000 N.ar    1  UNL1       -0.1332
     30 N           0.0000    0.0000    0.0000 N.ar    1  UNL1       -0.1313
     31 C           0.0000    0.0000    0.0000 C.ar    1  UNL1        0.1701
@<TRIPOS>BOND
     1     1     2    1
     2     2     3    3
     3     3     4    1
     4     4     5    1
     5     5     6   am
     6     6     7    2
     7     6     8    1
     8     8     9    1
     9     9    10    1
    10    10    11    2
    11    11    12    1
    12    12    13   ar
    13    13    14   ar
    14    14    15   ar
    15    15    16    1
    16    15    17   ar
    17    17    18   ar
    18    12    18   ar
    19    11    19    1
    20    19    20   ar
    21    20    21   ar
    22    21    22   ar
    23    22    23    1
    24    22    24   ar
    25    19    24   ar
    26    24    25    1
    27    20    26    1
    28    26    27   ar
    29    27    28    1
    30    27    29   ar
    31    29    30   ar
    32    30    31   ar
    33    26    31   ar
    34     9    31    1
