@<TRIPOS>MOLECULE
*****
 38 42 0 0 0
SMALL
GASTEIGER

@<TRIPOS>ATOM
      1 C           0.0000    0.0000    0.0000 C.3     1  UNL1        0.0232
      2 C           0.0000    0.0000    0.0000 C.3     1  UNL1        0.0909
      3 N           0.0000    0.0000    0.0000 N.pl3   1  UNL1       -0.3063
      4 C           0.0000    0.0000    0.0000 C.3     1  UNL1        0.0909
      5 C           0.0000    0.0000    0.0000 C.3     1  UNL1        0.0232
      6 C           0.0000    0.0000    0.0000 C.ar    1  UNL1        0.0674
      7 C           0.0000    0.0000    0.0000 C.ar    1  UNL1        0.0190
      8 C           0.0000    0.0000    0.0000 C.ar    1  UNL1        0.0374
      9 C           0.0000    0.0000    0.0000 C.ar    1  UNL1        0.1533
     10 N           0.0000    0.0000    0.0000 N.pl3   1  UNL1       -0.1755
     11 C           0.0000    0.0000    0.0000 C.ar    1  UNL1        0.1534
     12 C           0.0000    0.0000    0.0000 C.ar    1  UNL1        0.0405
     13 C           0.0000    0.0000    0.0000 C.ar    1  UNL1        0.0538
     14 C           0.0000    0.0000    0.0000 C.ar    1  UNL1        0.1362
     15 N           0.0000    0.0000    0.0000 N.pl3   1  UNL1       -0.2931
     16 C           0.0000    0.0000    0.0000 C.3     1  UNL1        0.0922
     17 C           0.0000    0.0000    0.0000 C.3     1  UNL1        0.0241
     18 C           0.0000    0.0000    0.0000 C.3     1  UNL1        0.0364
     19 C           0.0000    0.0000    0.0000 C.3     1  UNL1        0.1821
     20 O           0.0000    0.0000    0.0000 O.3     1  UNL1       -0.2204
     21 C           0.0000    0.0000    0.0000 C.3     1  UNL1        0.0241
     22 C           0.0000    0.0000    0.0000 C.3     1  UNL1        0.0922
     23 N           0.0000    0.0000    0.0000 N.ar    1  UNL1       -0.1972
     24 C           0.0000    0.0000    0.0000 C.ar    1  UNL1        0.2420
     25 N           0.0000    0.0000    0.0000 N.pl3   1  UNL1       -0.1776
     26 C           0.0000    0.0000    0.0000 C.ar    1  UNL1        0.0737
     27 C           0.0000    0.0000    0.0000 C.ar    1  UNL1        0.0189
     28 C           0.0000    0.0000    0.0000 C.ar    1  UNL1        0.0310
     29 C           0.0000    0.0000    0.0000 C.ar    1  UNL1        0.1402
     30 F           0.0000    0.0000    0.0000 F       1  UNL1       -0.2042
     31 C           0.0000    0.0000    0.0000 C.ar    1  UNL1        0.0310
     32 C           0.0000    0.0000    0.0000 C.ar    1  UNL1        0.0189
     33 N           0.0000    0.0000    0.0000 N.ar    1  UNL1       -0.2105
     34 C           0.0000    0.0000    0.0000 C.ar    1  UNL1        0.1061
     35 C           0.0000    0.0000    0.0000 C.ar    1  UNL1        0.1196
     36 N           0.0000    0.0000    0.0000 N.ar    1  UNL1       -0.2258
     37 N           0.0000    0.0000    0.0000 N.ar    1  UNL1       -0.2260
     38 C           0.0000    0.0000    0.0000 C.ar    1  UNL1        0.1148
@<TRIPOS>BOND
     1     1     2    1
     2     2     3    1
     3     3     4    1
     4     4     5    1
     5     3     6    1
     6     6     7   ar
     7     7     8   ar
     8     8     9   ar
     9     9    10    1
    10    10    11    1
    11    11    12   ar
    12    12    13   ar
    13    13    14   ar
    14    14    15    1
    15    15    16    1
    16    16    17    1
    17    17    18    1
    18    18    19    1
    19    19    20    1
    20    18    21    1
    21    21    22    1
    22    15    22    1
    23    14    23   ar
    24    23    24   ar
    25    24    25    1
    26    25    26    1
    27    26    27   ar
    28    27    28   ar
    29    28    29   ar
    30    29    30    1
    31    29    31   ar
    32    31    32   ar
    33    26    32   ar
    34    24    33   ar
    35    33    34   ar
    36    13    34   ar
    37    34    35   ar
    38    35    36   ar
    39    11    36   ar
    40     9    37   ar
    41    37    38   ar
    42     6    38   ar
