@<TRIPOS>MOLECULE
*****
 27 29 0 0 0
SMALL
GASTEIGER

@<TRIPOS>ATOM
      1 C           0.0000    0.0000    0.0000 C.3     1  UNL1        0.0307
      2 C           0.0000    0.0000    0.0000 C.2     1  UNL1       -0.0258
      3 C           0.0000    0.0000    0.0000 C.2     1  UNL1       -0.0043
      4 C           0.0000    0.0000    0.0000 C.2     1  UNL1       -0.0003
      5 C           0.0000    0.0000    0.0000 C.2     1  UNL1       -0.0000
      6 C           0.0000    0.0000    0.0000 C.ar    1  UNL1       -0.0005
      7 C           0.0000    0.0000    0.0000 C.ar    1  UNL1        0.0013
      8 C           0.0000    0.0000    0.0000 C.ar    1  UNL1        0.0146
      9 C           0.0000    0.0000    0.0000 C.ar    1  UNL1        0.0513
     10 C           0.0000    0.0000    0.0000 C.ar    1  UNL1        0.0111
     11 C           0.0000    0.0000    0.0000 C.ar    1  UNL1       -0.0014
     12 C           0.0000    0.0000    0.0000 C.3     1  UNL1        0.1175
     13 N           0.0000    0.0000    0.0000 N.pl3   1  UNL1       -0.2348
     14 C           0.0000    0.0000    0.0000 C.ar    1  UNL1        0.0657
     15 C           0.0000    0.0000    0.0000 C.ar    1  UNL1        0.0170
     16 C           0.0000    0.0000    0.0000 C.ar    1  UNL1        0.0127
     17 C           0.0000    0.0000    0.0000 C.ar    1  UNL1        0.0578
     18 CL          0.0000    0.0000    0.0000 Cl      1  UNL1       -0.0822
     19 C           0.0000    0.0000    0.0000 C.ar    1  UNL1        0.0127
     20 C           0.0000    0.0000    0.0000 C.ar    1  UNL1        0.0170
     21 C           0.0000    0.0000    0.0000 C.3     1  UNL1        0.0463
     22 C           0.0000    0.0000    0.0000 C.3     1  UNL1        0.0819
     23 C           0.0000    0.0000    0.0000 C.3     1  UNL1        0.0220
     24 N           0.0000    0.0000    0.0000 N.am    1  UNL1       -0.2605
     25 C           0.0000    0.0000    0.0000 C.2     1  UNL1        0.2298
     26 C           0.0000    0.0000    0.0000 C.3     1  UNL1        0.0952
     27 O           0.0000    0.0000    0.0000 O.2     1  UNL1       -0.2745
@<TRIPOS>BOND
     1     1     2    1
     2     2     3    2
     3     3     4    1
     4     4     5    2
     5     3     6    1
     6     6     7   ar
     7     7     8   ar
     8     8     9   ar
     9     9    10   ar
    10    10    11   ar
    11     6    11   ar
    12    10    12    1
    13    12    13    1
    14    13    14    1
    15    14    15   ar
    16    15    16   ar
    17    16    17   ar
    18    17    18    1
    19    17    19   ar
    20    19    20   ar
    21    14    20   ar
    22    12    21    1
    23    21    22    1
    24    22    23    1
    25    22    24    1
    26     9    24    1
    27    24    25   am
    28    25    26    1
    29    25    27    2
