@<TRIPOS>MOLECULE
*****
 20 22 0 0 0
SMALL
GASTEIGER

@<TRIPOS>ATOM
      1 C           0.0000    0.0000    0.0000 C.3     1  UNL1        0.0214
      2 C           0.0000    0.0000    0.0000 C.3     1  UNL1        0.0729
      3 C           0.0000    0.0000    0.0000 C.3     1  UNL1        0.0215
      4 C           0.0000    0.0000    0.0000 C.3     1  UNL1        0.0226
      5 C           0.0000    0.0000    0.0000 C.3     1  UNL1        0.0205
      6 C           0.0000    0.0000    0.0000 C.3     1  UNL1        0.0888
      7 N           0.0000    0.0000    0.0000 N.3     1  UNL1       -0.2180
      8 C           0.0000    0.0000    0.0000 C.3     1  UNL1        0.0888
      9 C           0.0000    0.0000    0.0000 C.3     1  UNL1        0.0205
     10 C           0.0000    0.0000    0.0000 C.3     1  UNL1        0.0907
     11 N           0.0000    0.0000    0.0000 N.pl3   1  UNL1       -0.3091
     12 C           0.0000    0.0000    0.0000 C.ar    1  UNL1        0.0487
     13 C           0.0000    0.0000    0.0000 C.ar    1  UNL1        0.0153
     14 C           0.0000    0.0000    0.0000 C.ar    1  UNL1        0.0124
     15 C           0.0000    0.0000    0.0000 C.ar    1  UNL1        0.0791
     16 C           0.0000    0.0000    0.0000 C.1     1  UNL1        0.1013
     17 N           0.0000    0.0000    0.0000 N.1     1  UNL1       -0.1908
     18 C           0.0000    0.0000    0.0000 C.ar    1  UNL1        0.0685
     19 CL          0.0000    0.0000    0.0000 Cl      1  UNL1       -0.0815
     20 C           0.0000    0.0000    0.0000 C.ar    1  UNL1        0.0266
@<TRIPOS>BOND
     1     1     2    1
     2     2     3    1
     3     3     4    1
     4     4     5    1
     5     5     6    1
     6     6     7    1
     7     7     8    1
     8     8     9    1
     9     4     9    1
    10     4    10    1
    11    10    11    1
    12     2    11    1
    13    11    12    1
    14    12    13   ar
    15    13    14   ar
    16    14    15   ar
    17    15    16    1
    18    16    17    3
    19    15    18   ar
    20    18    19    1
    21    18    20   ar
    22    12    20   ar
