@<TRIPOS>MOLECULE
*****
 23 25 0 0 0
SMALL
GASTEIGER

@<TRIPOS>ATOM
      1 C           0.0000    0.0000    0.0000 C.3     1  UNL1        0.0268
      2 C           0.0000    0.0000    0.0000 C.2     1  UNL1       -0.0362
      3 C           0.0000    0.0000    0.0000 C.2     1  UNL1        0.0311
      4 C           0.0000    0.0000    0.0000 C.2     1  UNL1       -0.0020
      5 C           0.0000    0.0000    0.0000 C.2     1  UNL1       -0.0261
      6 C           0.0000    0.0000    0.0000 C.3     1  UNL1        0.0260
      7 C           0.0000    0.0000    0.0000 C.3     1  UNL1        0.0050
      8 C           0.0000    0.0000    0.0000 C.2     1  UNL1        0.1961
      9 O           0.0000    0.0000    0.0000 O.2     1  UNL1       -0.2866
     10 C           0.0000    0.0000    0.0000 C.ar    1  UNL1        0.0542
     11 C           0.0000    0.0000    0.0000 C.ar    1  UNL1        0.0648
     12 N           0.0000    0.0000    0.0000 N.ar    1  UNL1       -0.2493
     13 C           0.0000    0.0000    0.0000 C.ar    1  UNL1        0.0817
     14 C           0.0000    0.0000    0.0000 C.ar    1  UNL1        0.0294
     15 C           0.0000    0.0000    0.0000 C.ar    1  UNL1        0.0699
     16 C           0.0000    0.0000    0.0000 C.1     1  UNL1        0.1005
     17 N           0.0000    0.0000    0.0000 N.1     1  UNL1       -0.1908
     18 C           0.0000    0.0000    0.0000 C.ar    1  UNL1        0.0104
     19 C           0.0000    0.0000    0.0000 C.ar    1  UNL1        0.0023
     20 C           0.0000    0.0000    0.0000 C.ar    1  UNL1        0.0219
     21 C           0.0000    0.0000    0.0000 C.3     1  UNL1        0.0507
     22 C           0.0000    0.0000    0.0000 C.3     1  UNL1        0.0100
     23 C           0.0000    0.0000    0.0000 C.3     1  UNL1        0.0100
@<TRIPOS>BOND
     1     1     2    1
     2     2     3    2
     3     3     4    1
     4     4     5    2
     5     5     6    1
     6     6     7    1
     7     3     8    1
     8     8     9    2
     9     8    10    1
    10    10    11   ar
    11    11    12   ar
    12    12    13   ar
    13    13    14   ar
    14    14    15   ar
    15    15    16    1
    16    16    17    3
    17    15    18   ar
    18    18    19   ar
    19    19    20   ar
    20    10    20   ar
    21    13    20   ar
    22    11    21    1
    23     2    21    1
    24    21    22    1
    25    21    23    1
