@<TRIPOS>MOLECULE
*****
 27 29 0 0 0
SMALL
GASTEIGER

@<TRIPOS>ATOM
      1 C           0.0000    0.0000    0.0000 C.3     1  UNL1        0.0053
      2 C           0.0000    0.0000    0.0000 C.3     1  UNL1        0.0554
      3 C           0.0000    0.0000    0.0000 C.3     1  UNL1        0.0053
      4 C           0.0000    0.0000    0.0000 C.3     1  UNL1        0.1021
      5 N           0.0000    0.0000    0.0000 N.am    1  UNL1       -0.2032
      6 C           0.0000    0.0000    0.0000 C.2     1  UNL1        0.2647
      7 O           0.0000    0.0000    0.0000 O.2     1  UNL1       -0.2684
      8 C           0.0000    0.0000    0.0000 C.ar    1  UNL1        0.0550
      9 C           0.0000    0.0000    0.0000 C.ar    1  UNL1        0.0046
     10 C           0.0000    0.0000    0.0000 C.ar    1  UNL1        0.0001
     11 C           0.0000    0.0000    0.0000 C.ar    1  UNL1        0.0000
     12 C           0.0000    0.0000    0.0000 C.ar    1  UNL1        0.0001
     13 C           0.0000    0.0000    0.0000 C.ar    1  UNL1        0.0046
     14 C           0.0000    0.0000    0.0000 C.3     1  UNL1        0.0554
     15 C           0.0000    0.0000    0.0000 C.3     1  UNL1        0.0053
     16 C           0.0000    0.0000    0.0000 C.3     1  UNL1        0.0053
     17 C           0.0000    0.0000    0.0000 C.3     1  UNL1        0.1686
     18 O           0.0000    0.0000    0.0000 O.3     1  UNL1       -0.4790
     19 C           0.0000    0.0000    0.0000 C.ar    1  UNL1        0.1393
     20 C           0.0000    0.0000    0.0000 C.ar    1  UNL1        0.0376
     21 C           0.0000    0.0000    0.0000 C.ar    1  UNL1        0.0142
     22 C           0.0000    0.0000    0.0000 C.ar    1  UNL1        0.0792
     23 C           0.0000    0.0000    0.0000 C.1     1  UNL1        0.1013
     24 N           0.0000    0.0000    0.0000 N.1     1  UNL1       -0.1908
     25 C           0.0000    0.0000    0.0000 C.ar    1  UNL1        0.0703
     26 CL          0.0000    0.0000    0.0000 Cl      1  UNL1       -0.0814
     27 C           0.0000    0.0000    0.0000 C.ar    1  UNL1        0.0490
@<TRIPOS>BOND
     1     1     2    1
     2     2     3    1
     3     2     4    1
     4     4     5    1
     5     5     6   am
     6     6     7    2
     7     6     8    1
     8     8     9   ar
     9     9    10   ar
    10    10    11   ar
    11    11    12   ar
    12    12    13   ar
    13     8    13   ar
    14     4    14    1
    15    14    15    1
    16    14    16    1
    17    14    17    1
    18     2    17    1
    19    17    18    1
    20    18    19    1
    21    19    20   ar
    22    20    21   ar
    23    21    22   ar
    24    22    23    1
    25    23    24    3
    26    22    25   ar
    27    25    26    1
    28    25    27   ar
    29    19    27   ar
