@<TRIPOS>MOLECULE
*****
 32 36 0 0 0
SMALL
GASTEIGER

@<TRIPOS>ATOM
      1 C           0.0000    0.0000    0.0000 C.3     1  UNL1        0.0232
      2 C           0.0000    0.0000    0.0000 C.3     1  UNL1        0.0922
      3 N           0.0000    0.0000    0.0000 N.pl3   1  UNL1       -0.2932
      4 C           0.0000    0.0000    0.0000 C.3     1  UNL1        0.0922
      5 C           0.0000    0.0000    0.0000 C.3     1  UNL1        0.0232
      6 C           0.0000    0.0000    0.0000 C.ar    1  UNL1        0.1317
      7 C           0.0000    0.0000    0.0000 C.ar    1  UNL1        0.0343
      8 C           0.0000    0.0000    0.0000 C.ar    1  UNL1        0.0045
      9 C           0.0000    0.0000    0.0000 C.ar    1  UNL1        0.0208
     10 C           0.0000    0.0000    0.0000 C.ar    1  UNL1        0.1019
     11 C           0.0000    0.0000    0.0000 C.ar    1  UNL1        0.1212
     12 C           0.0000    0.0000    0.0000 C.ar    1  UNL1        0.1212
     13 N           0.0000    0.0000    0.0000 N.ar    1  UNL1       -0.2234
     14 C           0.0000    0.0000    0.0000 C.ar    1  UNL1        0.1640
     15 C           0.0000    0.0000    0.0000 C.ar    1  UNL1        0.0417
     16 C           0.0000    0.0000    0.0000 C.ar    1  UNL1        0.0392
     17 C           0.0000    0.0000    0.0000 C.ar    1  UNL1        0.1522
     18 N           0.0000    0.0000    0.0000 N.pl3   1  UNL1       -0.2898
     19 C           0.0000    0.0000    0.0000 C.3     1  UNL1        0.0925
     20 C           0.0000    0.0000    0.0000 C.3     1  UNL1        0.0235
     21 C           0.0000    0.0000    0.0000 C.3     1  UNL1        0.0261
     22 C           0.0000    0.0000    0.0000 C.3     1  UNL1        0.0968
     23 C           0.0000    0.0000    0.0000 C.ar    1  UNL1       -0.0021
     24 C           0.0000    0.0000    0.0000 C.ar    1  UNL1       -0.0025
     25 C           0.0000    0.0000    0.0000 C.ar    1  UNL1        0.0020
     26 C           0.0000    0.0000    0.0000 C.ar    1  UNL1        0.0296
     27 C           0.0000    0.0000    0.0000 C.ar    1  UNL1        0.1399
     28 F           0.0000    0.0000    0.0000 F       1  UNL1       -0.2042
     29 C           0.0000    0.0000    0.0000 C.ar    1  UNL1        0.0270
     30 N           0.0000    0.0000    0.0000 N.ar    1  UNL1       -0.1486
     31 N           0.0000    0.0000    0.0000 N.ar    1  UNL1       -0.2081
     32 N           0.0000    0.0000    0.0000 N.ar    1  UNL1       -0.2291
@<TRIPOS>BOND
     1     1     2    1
     2     2     3    1
     3     3     4    1
     4     4     5    1
     5     3     6    1
     6     6     7   ar
     7     7     8   ar
     8     8     9   ar
     9     9    10   ar
    10    10    11    1
    11    11    12   ar
    12    12    13   ar
    13    13    14   ar
    14    14    15   ar
    15    15    16   ar
    16    16    17   ar
    17    17    18    1
    18    18    19    1
    19    19    20    1
    20    20    21    1
    21    21    22    1
    22    18    22    1
    23    22    23    1
    24    23    24   ar
    25    24    25   ar
    26    25    26   ar
    27    26    27   ar
    28    27    28    1
    29    27    29   ar
    30    23    29   ar
    31    17    30   ar
    32    30    31   ar
    33    11    31   ar
    34    14    31   ar
    35    10    32   ar
    36     6    32   ar
