@<TRIPOS>MOLECULE
*****
 12 12 0 0 0
SMALL
GASTEIGER

@<TRIPOS>ATOM
      1 C           0.0000    0.0000    0.0000 C.3     1  UNL1        0.0771
      2 S           0.0000    0.0000    0.0000 S.3     1  UNL1       -0.0757
      3 C           0.0000    0.0000    0.0000 C.2     1  UNL1        0.2002
      4 N           0.0000    0.0000    0.0000 N.2     1  UNL1       -0.1227
      5 N           0.0000    0.0000    0.0000 N.pl3   1  UNL1       -0.1874
      6 C           0.0000    0.0000    0.0000 C.ar    1  UNL1        0.0727
      7 C           0.0000    0.0000    0.0000 C.ar    1  UNL1        0.0174
      8 C           0.0000    0.0000    0.0000 C.ar    1  UNL1        0.0127
      9 C           0.0000    0.0000    0.0000 C.ar    1  UNL1        0.0578
     10 CL          0.0000    0.0000    0.0000 Cl      1  UNL1       -0.0822
     11 C           0.0000    0.0000    0.0000 C.ar    1  UNL1        0.0127
     12 C           0.0000    0.0000    0.0000 C.ar    1  UNL1        0.0174
@<TRIPOS>BOND
     1     1     2    1
     2     2     3    1
     3     3     4    2
     4     3     5    1
     5     5     6    1
     6     6     7   ar
     7     7     8   ar
     8     8     9   ar
     9     9    10    1
    10     9    11   ar
    11    11    12   ar
    12     6    12   ar
