@<TRIPOS>MOLECULE
*****
 25 27 0 0 0
SMALL
GASTEIGER

@<TRIPOS>ATOM
      1 O           0.0000    0.0000    0.0000 O.2     1  UNL1       -0.2680
      2 C           0.0000    0.0000    0.0000 C.2     1  UNL1        0.2705
      3 N           0.0000    0.0000    0.0000 N.am    1  UNL1       -0.1754
      4 C           0.0000    0.0000    0.0000 C.ar    1  UNL1        0.0739
      5 C           0.0000    0.0000    0.0000 C.ar    1  UNL1        0.0197
      6 C           0.0000    0.0000    0.0000 C.ar    1  UNL1        0.0385
      7 C           0.0000    0.0000    0.0000 C.ar    1  UNL1        0.1453
      8 O           0.0000    0.0000    0.0000 O.3     1  UNL1       -0.4184
      9 C           0.0000    0.0000    0.0000 C.3     1  UNL1        0.4893
     10 F           0.0000    0.0000    0.0000 F       1  UNL1       -0.1486
     11 F           0.0000    0.0000    0.0000 F       1  UNL1       -0.1486
     12 CL          0.0000    0.0000    0.0000 Cl      1  UNL1        0.0004
     13 C           0.0000    0.0000    0.0000 C.ar    1  UNL1        0.0385
     14 C           0.0000    0.0000    0.0000 C.ar    1  UNL1        0.0197
     15 C           0.0000    0.0000    0.0000 C.ar    1  UNL1        0.0746
     16 C           0.0000    0.0000    0.0000 C.ar    1  UNL1        0.1034
     17 N           0.0000    0.0000    0.0000 N.ar    1  UNL1       -0.2421
     18 C           0.0000    0.0000    0.0000 C.ar    1  UNL1        0.1004
     19 C           0.0000    0.0000    0.0000 C.ar    1  UNL1        0.0388
     20 C           0.0000    0.0000    0.0000 C.ar    1  UNL1        0.1059
     21 C           0.0000    0.0000    0.0000 C.ar    1  UNL1        0.0435
     22 C           0.0000    0.0000    0.0000 C.ar    1  UNL1        0.1238
     23 N           0.0000    0.0000    0.0000 N.ar    1  UNL1       -0.1464
     24 N           0.0000    0.0000    0.0000 N.ar    1  UNL1       -0.1479
     25 C           0.0000    0.0000    0.0000 C.ar    1  UNL1        0.0092
@<TRIPOS>BOND
     1     1     2    2
     2     2     3   am
     3     3     4    1
     4     4     5   ar
     5     5     6   ar
     6     6     7   ar
     7     7     8    1
     8     8     9    1
     9     9    10    1
    10     9    11    1
    11     9    12    1
    12     7    13   ar
    13    13    14   ar
    14     4    14   ar
    15     2    15    1
    16    15    16   ar
    17    16    17   ar
    18    17    18   ar
    19    18    19   ar
    20    19    20    1
    21    20    21   ar
    22    21    22   ar
    23    22    23   ar
    24    23    24   ar
    25    20    24   ar
    26    19    25   ar
    27    15    25   ar
