@<TRIPOS>MOLECULE
*****
 33 36 0 0 0
SMALL
GASTEIGER

@<TRIPOS>ATOM
      1 C           0.0000    0.0000    0.0000 C.3     1  UNL1        0.2525
      2 O           0.0000    0.0000    0.0000 O.3     1  UNL1       -0.4701
      3 C           0.0000    0.0000    0.0000 C.ar    1  UNL1        0.1551
      4 C           0.0000    0.0000    0.0000 C.ar    1  UNL1        0.0527
      5 C           0.0000    0.0000    0.0000 C.ar    1  UNL1        0.0510
      6 N           0.0000    0.0000    0.0000 N.pl3   1  UNL1       -0.3046
      7 C           0.0000    0.0000    0.0000 C.3     1  UNL1        0.1081
      8 C           0.0000    0.0000    0.0000 C.3     1  UNL1        0.0938
      9 N           0.0000    0.0000    0.0000 N.3     1  UNL1       -0.2686
     10 C           0.0000    0.0000    0.0000 C.3     1  UNL1        0.0897
     11 C           0.0000    0.0000    0.0000 C.3     1  UNL1        0.0938
     12 C           0.0000    0.0000    0.0000 C.3     1  UNL1        0.1081
     13 C           0.0000    0.0000    0.0000 C.ar    1  UNL1        0.0161
     14 C           0.0000    0.0000    0.0000 C.ar    1  UNL1        0.0209
     15 C           0.0000    0.0000    0.0000 C.ar    1  UNL1        0.1060
     16 N           0.0000    0.0000    0.0000 N.pl3   1  UNL1       -0.1910
     17 C           0.0000    0.0000    0.0000 C.ar    1  UNL1        0.1531
     18 C           0.0000    0.0000    0.0000 C.ar    1  UNL1        0.0526
     19 C           0.0000    0.0000    0.0000 C.ar    1  UNL1        0.0787
     20 N           0.0000    0.0000    0.0000 N.pl3   1  UNL1       -0.2124
     21 C           0.0000    0.0000    0.0000 C.ar    1  UNL1        0.0705
     22 C           0.0000    0.0000    0.0000 C.ar    1  UNL1        0.0165
     23 C           0.0000    0.0000    0.0000 C.ar    1  UNL1        0.0013
     24 C           0.0000    0.0000    0.0000 C.ar    1  UNL1        0.0001
     25 C           0.0000    0.0000    0.0000 C.ar    1  UNL1        0.0013
     26 C           0.0000    0.0000    0.0000 C.ar    1  UNL1        0.0165
     27 C           0.0000    0.0000    0.0000 C.ar    1  UNL1        0.1058
     28 C           0.0000    0.0000    0.0000 C.3     1  UNL1        0.4212
     29 F           0.0000    0.0000    0.0000 F       1  UNL1       -0.1658
     30 F           0.0000    0.0000    0.0000 F       1  UNL1       -0.1658
     31 F           0.0000    0.0000    0.0000 F       1  UNL1       -0.1658
     32 C           0.0000    0.0000    0.0000 C.ar    1  UNL1        0.1055
     33 N           0.0000    0.0000    0.0000 N.ar    1  UNL1       -0.2274
@<TRIPOS>BOND
     1     1     2    1
     2     2     3    1
     3     3     4   ar
     4     4     5   ar
     5     5     6    1
     6     6     7    1
     7     7     8    1
     8     8     9    1
     9     9    10    1
    10     9    11    1
    11    11    12    1
    12     6    12    1
    13     5    13   ar
    14    13    14   ar
    15    14    15   ar
    16     3    15   ar
    17    15    16    1
    18    16    17    1
    19    17    18   ar
    20    18    19   ar
    21    19    20    1
    22    20    21    1
    23    21    22   ar
    24    22    23   ar
    25    23    24   ar
    26    24    25   ar
    27    25    26   ar
    28    21    26   ar
    29    19    27   ar
    30    27    28    1
    31    28    29    1
    32    28    30    1
    33    28    31    1
    34    27    32   ar
    35    32    33   ar
    36    17    33   ar
