@<TRIPOS>MOLECULE
*****
 25 27 0 0 0
SMALL
GASTEIGER

@<TRIPOS>ATOM
      1 C           0.0000    0.0000    0.0000 C.3     1  UNL1        0.0296
      2 C           0.0000    0.0000    0.0000 C.3     1  UNL1        0.1327
      3 C           0.0000    0.0000    0.0000 C.3     1  UNL1        0.0296
      4 C           0.0000    0.0000    0.0000 C.2     1  UNL1        0.2507
      5 O           0.0000    0.0000    0.0000 O.2     1  UNL1       -0.2724
      6 N           0.0000    0.0000    0.0000 N.am    1  UNL1       -0.2183
      7 C           0.0000    0.0000    0.0000 C.ar    1  UNL1        0.0606
      8 C           0.0000    0.0000    0.0000 C.ar    1  UNL1        0.0160
      9 C           0.0000    0.0000    0.0000 C.ar    1  UNL1        0.0124
     10 C           0.0000    0.0000    0.0000 C.ar    1  UNL1        0.0791
     11 C           0.0000    0.0000    0.0000 C.1     1  UNL1        0.1013
     12 N           0.0000    0.0000    0.0000 N.1     1  UNL1       -0.1908
     13 C           0.0000    0.0000    0.0000 C.ar    1  UNL1        0.0685
     14 CL          0.0000    0.0000    0.0000 Cl      1  UNL1       -0.0815
     15 C           0.0000    0.0000    0.0000 C.ar    1  UNL1        0.0274
     16 C           0.0000    0.0000    0.0000 C.2     1  UNL1        0.1517
     17 S           0.0000    0.0000    0.0000 S.2     1  UNL1       -0.0174
     18 N           0.0000    0.0000    0.0000 N.am    1  UNL1       -0.2647
     19 C           0.0000    0.0000    0.0000 C.ar    1  UNL1        0.0535
     20 C           0.0000    0.0000    0.0000 C.ar    1  UNL1        0.0182
     21 C           0.0000    0.0000    0.0000 C.ar    1  UNL1        0.0433
     22 C           0.0000    0.0000    0.0000 C.ar    1  UNL1        0.1958
     23 O           0.0000    0.0000    0.0000 O.3     1  UNL1       -0.2866
     24 C           0.0000    0.0000    0.0000 C.ar    1  UNL1        0.0433
     25 C           0.0000    0.0000    0.0000 C.ar    1  UNL1        0.0182
@<TRIPOS>BOND
     1     1     2    1
     2     2     3    1
     3     2     4    1
     4     4     5    2
     5     4     6   am
     6     6     7    1
     7     7     8   ar
     8     8     9   ar
     9     9    10   ar
    10    10    11    1
    11    11    12    3
    12    10    13   ar
    13    13    14    1
    14    13    15   ar
    15     7    15   ar
    16     6    16    1
    17    16    17    2
    18    16    18    1
    19     2    18    1
    20    18    19    1
    21    19    20   ar
    22    20    21   ar
    23    21    22   ar
    24    22    23    1
    25    22    24   ar
    26    24    25   ar
    27    19    25   ar
