@<TRIPOS>MOLECULE
*****
 21 23 0 0 0
SMALL
GASTEIGER

@<TRIPOS>ATOM
      1 C           0.0000    0.0000    0.0000 C.3     1  UNL1        0.0332
      2 C           0.0000    0.0000    0.0000 C.ar    1  UNL1        0.0027
      3 C           0.0000    0.0000    0.0000 C.ar    1  UNL1        0.0446
      4 N           0.0000    0.0000    0.0000 N.pl3   1  UNL1       -0.3093
      5 C           0.0000    0.0000    0.0000 C.3     1  UNL1        0.0908
      6 C           0.0000    0.0000    0.0000 C.3     1  UNL1        0.0231
      7 C           0.0000    0.0000    0.0000 C.3     1  UNL1        0.0211
      8 C           0.0000    0.0000    0.0000 C.3     1  UNL1        0.0205
      9 C           0.0000    0.0000    0.0000 C.3     1  UNL1        0.0888
     10 N           0.0000    0.0000    0.0000 N.3     1  UNL1       -0.2180
     11 C           0.0000    0.0000    0.0000 C.3     1  UNL1        0.0888
     12 C           0.0000    0.0000    0.0000 C.3     1  UNL1        0.0205
     13 C           0.0000    0.0000    0.0000 C.3     1  UNL1        0.0729
     14 C           0.0000    0.0000    0.0000 C.3     1  UNL1        0.0214
     15 C           0.0000    0.0000    0.0000 C.ar    1  UNL1        0.0149
     16 C           0.0000    0.0000    0.0000 C.ar    1  UNL1        0.0124
     17 C           0.0000    0.0000    0.0000 C.ar    1  UNL1        0.0787
     18 C           0.0000    0.0000    0.0000 C.1     1  UNL1        0.1013
     19 N           0.0000    0.0000    0.0000 N.1     1  UNL1       -0.1908
     20 C           0.0000    0.0000    0.0000 C.ar    1  UNL1        0.0645
     21 CL          0.0000    0.0000    0.0000 Cl      1  UNL1       -0.0818
@<TRIPOS>BOND
     1     1     2    1
     2     2     3   ar
     3     3     4    1
     4     4     5    1
     5     5     6    1
     6     6     7    1
     7     7     8    1
     8     8     9    1
     9     9    10    1
    10    10    11    1
    11    11    12    1
    12     7    12    1
    13     7    13    1
    14     4    13    1
    15    13    14    1
    16     3    15   ar
    17    15    16   ar
    18    16    17   ar
    19    17    18    1
    20    18    19    3
    21    17    20   ar
    22     2    20   ar
    23    20    21    1
