@<TRIPOS>MOLECULE
*****
 31 33 0 0 0
SMALL
GASTEIGER

@<TRIPOS>ATOM
      1 C           0.0000    0.0000    0.0000 C.3     1  UNL1        0.1405
      2 N           0.0000    0.0000    0.0000 N.pl3   1  UNL1       -0.1748
      3 C           0.0000    0.0000    0.0000 C.ar    1  UNL1        0.1654
      4 N           0.0000    0.0000    0.0000 N.ar    1  UNL1       -0.2248
      5 C           0.0000    0.0000    0.0000 C.ar    1  UNL1        0.1210
      6 C           0.0000    0.0000    0.0000 C.ar    1  UNL1        0.1193
      7 N           0.0000    0.0000    0.0000 N.ar    1  UNL1       -0.2419
      8 C           0.0000    0.0000    0.0000 C.ar    1  UNL1        0.1137
      9 C           0.0000    0.0000    0.0000 C.3     1  UNL1        0.1621
     10 N           0.0000    0.0000    0.0000 N.pl3   1  UNL1       -0.2136
     11 C           0.0000    0.0000    0.0000 C.ar    1  UNL1        0.1562
     12 N           0.0000    0.0000    0.0000 N.ar    1  UNL1       -0.1958
     13 C           0.0000    0.0000    0.0000 C.ar    1  UNL1        0.2420
     14 N           0.0000    0.0000    0.0000 N.pl3   1  UNL1       -0.1776
     15 C           0.0000    0.0000    0.0000 C.ar    1  UNL1        0.0736
     16 C           0.0000    0.0000    0.0000 C.ar    1  UNL1        0.0166
     17 C           0.0000    0.0000    0.0000 C.ar    1  UNL1        0.0013
     18 C           0.0000    0.0000    0.0000 C.ar    1  UNL1        0.0001
     19 C           0.0000    0.0000    0.0000 C.ar    1  UNL1        0.0013
     20 C           0.0000    0.0000    0.0000 C.ar    1  UNL1        0.0166
     21 N           0.0000    0.0000    0.0000 N.ar    1  UNL1       -0.2106
     22 C           0.0000    0.0000    0.0000 C.ar    1  UNL1        0.1086
     23 C           0.0000    0.0000    0.0000 C.ar    1  UNL1        0.1235
     24 C           0.0000    0.0000    0.0000 C.3     1  UNL1        0.4227
     25 F           0.0000    0.0000    0.0000 F       1  UNL1       -0.1657
     26 F           0.0000    0.0000    0.0000 F       1  UNL1       -0.1657
     27 F           0.0000    0.0000    0.0000 F       1  UNL1       -0.1657
     28 S           0.0000    0.0000    0.0000 S.O2    1  UNL1        0.0600
     29 C           0.0000    0.0000    0.0000 C.3     1  UNL1        0.1999
     30 O           0.0000    0.0000    0.0000 O.2     1  UNL1       -0.1542
     31 O           0.0000    0.0000    0.0000 O.2     1  UNL1       -0.1542
@<TRIPOS>BOND
     1     1     2    1
     2     2     3    1
     3     3     4   ar
     4     4     5   ar
     5     5     6   ar
     6     6     7   ar
     7     7     8   ar
     8     3     8   ar
     9     8     9    1
    10     9    10    1
    11    10    11    1
    12    11    12   ar
    13    12    13   ar
    14    13    14    1
    15    14    15    1
    16    15    16   ar
    17    16    17   ar
    18    17    18   ar
    19    18    19   ar
    20    19    20   ar
    21    15    20   ar
    22    13    21   ar
    23    21    22   ar
    24    22    23   ar
    25    11    23   ar
    26    23    24    1
    27    24    25    1
    28    24    26    1
    29    24    27    1
    30     2    28    1
    31    28    29    1
    32    28    30    2
    33    28    31    2
