@<TRIPOS>MOLECULE
*****
 29 30 0 0 0
SMALL
GASTEIGER

@<TRIPOS>ATOM
      1 C           0.0000    0.0000    0.0000 C.3     1  UNL1        0.0321
      2 C           0.0000    0.0000    0.0000 C.2     1  UNL1       -0.0092
      3 C           0.0000    0.0000    0.0000 C.2     1  UNL1        0.0679
      4 C           0.0000    0.0000    0.0000 C.2     1  UNL1        0.0162
      5 C           0.0000    0.0000    0.0000 C.2     1  UNL1        0.0014
      6 N           0.0000    0.0000    0.0000 N.pl3   1  UNL1       -0.1943
      7 C           0.0000    0.0000    0.0000 C.ar    1  UNL1        0.1563
      8 C           0.0000    0.0000    0.0000 C.ar    1  UNL1        0.0709
      9 C           0.0000    0.0000    0.0000 C.ar    1  UNL1        0.1433
     10 N           0.0000    0.0000    0.0000 N.am    1  UNL1       -0.2247
     11 C           0.0000    0.0000    0.0000 C.3     1  UNL1        0.1232
     12 C           0.0000    0.0000    0.0000 C.2     1  UNL1        0.3324
     13 O           0.0000    0.0000    0.0000 O.2     1  UNL1       -0.2500
     14 N           0.0000    0.0000    0.0000 N.am    1  UNL1       -0.1600
     15 C           0.0000    0.0000    0.0000 C.ar    1  UNL1        0.1019
     16 C           0.0000    0.0000    0.0000 C.ar    1  UNL1        0.1078
     17 CL          0.0000    0.0000    0.0000 Cl      1  UNL1       -0.0777
     18 C           0.0000    0.0000    0.0000 C.ar    1  UNL1        0.1535
     19 O           0.0000    0.0000    0.0000 O.3     1  UNL1       -0.4704
     20 C           0.0000    0.0000    0.0000 C.3     1  UNL1        0.2525
     21 C           0.0000    0.0000    0.0000 C.ar    1  UNL1        0.0756
     22 C           0.0000    0.0000    0.0000 C.ar    1  UNL1        0.1535
     23 O           0.0000    0.0000    0.0000 O.3     1  UNL1       -0.4704
     24 C           0.0000    0.0000    0.0000 C.3     1  UNL1        0.2525
     25 C           0.0000    0.0000    0.0000 C.ar    1  UNL1        0.1078
     26 CL          0.0000    0.0000    0.0000 Cl      1  UNL1       -0.0777
     27 N           0.0000    0.0000    0.0000 N.ar    1  UNL1       -0.2085
     28 C           0.0000    0.0000    0.0000 C.ar    1  UNL1        0.2013
     29 N           0.0000    0.0000    0.0000 N.ar    1  UNL1       -0.2071
@<TRIPOS>BOND
     1     1     2    1
     2     2     3    2
     3     3     4    1
     4     4     5    2
     5     3     6    1
     6     6     7    1
     7     7     8   ar
     8     8     9   ar
     9     9    10    1
    10    10    11    1
    11    10    12   am
    12    12    13    2
    13    12    14   am
    14    14    15    1
    15    15    16   ar
    16    16    17    1
    17    16    18   ar
    18    18    19    1
    19    19    20    1
    20    18    21   ar
    21    21    22   ar
    22    22    23    1
    23    23    24    1
    24    22    25   ar
    25    15    25   ar
    26    25    26    1
    27     9    27   ar
    28    27    28   ar
    29    28    29   ar
    30     7    29   ar
