@<TRIPOS>MOLECULE
*****
 21 23 0 0 0
SMALL
GASTEIGER

@<TRIPOS>ATOM
      1 C           0.0000    0.0000    0.0000 C.3     1  UNL1        0.0285
      2 C           0.0000    0.0000    0.0000 C.3     1  UNL1        0.1308
      3 N           0.0000    0.0000    0.0000 N.ar    1  UNL1       -0.2157
      4 N           0.0000    0.0000    0.0000 N.ar    1  UNL1       -0.1711
      5 C           0.0000    0.0000    0.0000 C.ar    1  UNL1        0.0818
      6 C           0.0000    0.0000    0.0000 C.3     1  UNL1        0.0540
      7 C           0.0000    0.0000    0.0000 C.ar    1  UNL1        0.0529
      8 C           0.0000    0.0000    0.0000 C.ar    1  UNL1        0.0637
      9 C           0.0000    0.0000    0.0000 C.3     1  UNL1        0.0522
     10 N           0.0000    0.0000    0.0000 N.ar    1  UNL1       -0.2335
     11 C           0.0000    0.0000    0.0000 C.ar    1  UNL1        0.0824
     12 C           0.0000    0.0000    0.0000 C.ar    1  UNL1        0.0188
     13 C           0.0000    0.0000    0.0000 C.ar    1  UNL1       -0.0027
     14 C           0.0000    0.0000    0.0000 C.ar    1  UNL1       -0.0218
     15 C           0.0000    0.0000    0.0000 C.3     1  UNL1        0.0310
     16 C           0.0000    0.0000    0.0000 C.ar    1  UNL1       -0.0027
     17 C           0.0000    0.0000    0.0000 C.ar    1  UNL1        0.0188
     18 N           0.0000    0.0000    0.0000 N.ar    1  UNL1       -0.1604
     19 C           0.0000    0.0000    0.0000 C.ar    1  UNL1        0.1608
     20 C           0.0000    0.0000    0.0000 C.ar    1  UNL1        0.2958
     21 O           0.0000    0.0000    0.0000 O.2     1  UNL1       -0.2638
@<TRIPOS>BOND
     1     1     2    1
     2     2     3    1
     3     3     4   ar
     4     4     5   ar
     5     5     6    1
     6     5     7   ar
     7     7     8   ar
     8     8     9    1
     9     8    10   ar
    10    10    11    1
    11    11    12   ar
    12    12    13   ar
    13    13    14   ar
    14    14    15    1
    15    14    16   ar
    16    16    17   ar
    17    11    17   ar
    18    10    18   ar
    19    18    19   ar
    20     7    19   ar
    21    19    20   ar
    22     3    20   ar
    23    20    21    2
