@<TRIPOS>MOLECULE
*****
 31 33 0 0 0
SMALL
GASTEIGER

@<TRIPOS>ATOM
      1 C           0.0000    0.0000    0.0000 C.3     1  UNL1        0.2527
      2 O           0.0000    0.0000    0.0000 O.3     1  UNL1       -0.4669
      3 C           0.0000    0.0000    0.0000 C.ar    1  UNL1        0.1932
      4 C           0.0000    0.0000    0.0000 C.ar    1  UNL1        0.1773
      5 F           0.0000    0.0000    0.0000 F       1  UNL1       -0.2008
      6 C           0.0000    0.0000    0.0000 C.ar    1  UNL1        0.0478
      7 C           0.0000    0.0000    0.0000 C.ar    1  UNL1        0.0579
      8 N           0.0000    0.0000    0.0000 N.am    1  UNL1       -0.2646
      9 C           0.0000    0.0000    0.0000 C.2     1  UNL1        0.1517
     10 S           0.0000    0.0000    0.0000 S.2     1  UNL1       -0.0174
     11 N           0.0000    0.0000    0.0000 N.am    1  UNL1       -0.2184
     12 C           0.0000    0.0000    0.0000 C.ar    1  UNL1        0.0597
     13 C           0.0000    0.0000    0.0000 C.ar    1  UNL1        0.0160
     14 C           0.0000    0.0000    0.0000 C.ar    1  UNL1        0.0115
     15 C           0.0000    0.0000    0.0000 C.ar    1  UNL1        0.0724
     16 C           0.0000    0.0000    0.0000 C.1     1  UNL1        0.1004
     17 N           0.0000    0.0000    0.0000 N.1     1  UNL1       -0.1908
     18 C           0.0000    0.0000    0.0000 C.ar    1  UNL1        0.0823
     19 C           0.0000    0.0000    0.0000 C.3     1  UNL1        0.4192
     20 F           0.0000    0.0000    0.0000 F       1  UNL1       -0.1658
     21 F           0.0000    0.0000    0.0000 F       1  UNL1       -0.1658
     22 F           0.0000    0.0000    0.0000 F       1  UNL1       -0.1658
     23 C           0.0000    0.0000    0.0000 C.ar    1  UNL1        0.0198
     24 C           0.0000    0.0000    0.0000 C.2     1  UNL1        0.2507
     25 O           0.0000    0.0000    0.0000 O.2     1  UNL1       -0.2724
     26 C           0.0000    0.0000    0.0000 C.3     1  UNL1        0.1327
     27 C           0.0000    0.0000    0.0000 C.3     1  UNL1        0.0296
     28 C           0.0000    0.0000    0.0000 C.3     1  UNL1        0.0296
     29 C           0.0000    0.0000    0.0000 C.ar    1  UNL1        0.0478
     30 C           0.0000    0.0000    0.0000 C.ar    1  UNL1        0.1773
     31 F           0.0000    0.0000    0.0000 F       1  UNL1       -0.2008
@<TRIPOS>BOND
     1     1     2    1
     2     2     3    1
     3     3     4   ar
     4     4     5    1
     5     4     6   ar
     6     6     7   ar
     7     7     8    1
     8     8     9    1
     9     9    10    2
    10     9    11    1
    11    11    12    1
    12    12    13   ar
    13    13    14   ar
    14    14    15   ar
    15    15    16    1
    16    16    17    3
    17    15    18   ar
    18    18    19    1
    19    19    20    1
    20    19    21    1
    21    19    22    1
    22    18    23   ar
    23    12    23   ar
    24    11    24   am
    25    24    25    2
    26    24    26    1
    27     8    26    1
    28    26    27    1
    29    26    28    1
    30     7    29   ar
    31    29    30   ar
    32     3    30   ar
    33    30    31    1
