@<TRIPOS>MOLECULE
*****
 10 10 0 0 0
SMALL
GASTEIGER

@<TRIPOS>ATOM
      1 N           0.0000    0.0000    0.0000 N.pl3   1  UNL1       -0.1267
      2 C           0.0000    0.0000    0.0000 C.ar    1  UNL1        0.1043
      3 C           0.0000    0.0000    0.0000 C.ar    1  UNL1        0.0194
      4 C           0.0000    0.0000    0.0000 C.ar    1  UNL1        0.0015
      5 C           0.0000    0.0000    0.0000 C.ar    1  UNL1        0.0014
      6 C           0.0000    0.0000    0.0000 C.ar    1  UNL1        0.0180
      7 C           0.0000    0.0000    0.0000 C.ar    1  UNL1        0.0905
      8 N           0.0000    0.0000    0.0000 N.am    1  UNL1       -0.1701
      9 C           0.0000    0.0000    0.0000 C.2     1  UNL1        0.3247
     10 O           0.0000    0.0000    0.0000 O.2     1  UNL1       -0.2629
@<TRIPOS>BOND
     1     1     2    1
     2     2     3   ar
     3     3     4   ar
     4     4     5   ar
     5     5     6   ar
     6     6     7   ar
     7     2     7   ar
     8     7     8    1
     9     8     9   am
    10     9    10    2
