@<TRIPOS>MOLECULE
*****
 26 29 0 0 0
SMALL
GASTEIGER

@<TRIPOS>ATOM
      1 C           0.0000    0.0000    0.0000 C.3     1  UNL1        0.0289
      2 C           0.0000    0.0000    0.0000 C.3     1  UNL1        0.1692
      3 S           0.0000    0.0000    0.0000 S.O2    1  UNL1        0.0439
      4 O           0.0000    0.0000    0.0000 O.2     1  UNL1       -0.1573
      5 O           0.0000    0.0000    0.0000 O.2     1  UNL1       -0.1573
      6 N           0.0000    0.0000    0.0000 N.3     1  UNL1       -0.1554
      7 C           0.0000    0.0000    0.0000 C.3     1  UNL1        0.1203
      8 C           0.0000    0.0000    0.0000 C.3     1  UNL1        0.1332
      9 C           0.0000    0.0000    0.0000 C.3     1  UNL1        0.1306
     10 C           0.0000    0.0000    0.0000 C.1     1  UNL1        0.0752
     11 N           0.0000    0.0000    0.0000 N.1     1  UNL1       -0.1958
     12 N           0.0000    0.0000    0.0000 N.ar    1  UNL1       -0.2493
     13 C           0.0000    0.0000    0.0000 C.ar    1  UNL1        0.0981
     14 C           0.0000    0.0000    0.0000 C.ar    1  UNL1        0.0574
     15 C           0.0000    0.0000    0.0000 C.ar    1  UNL1        0.0890
     16 N           0.0000    0.0000    0.0000 N.ar    1  UNL1       -0.2238
     17 C           0.0000    0.0000    0.0000 C.ar    1  UNL1        0.2002
     18 N           0.0000    0.0000    0.0000 N.ar    1  UNL1       -0.2048
     19 C           0.0000    0.0000    0.0000 C.ar    1  UNL1        0.1655
     20 C           0.0000    0.0000    0.0000 C.ar    1  UNL1        0.0552
     21 C           0.0000    0.0000    0.0000 C.ar    1  UNL1        0.0252
     22 C           0.0000    0.0000    0.0000 C.ar    1  UNL1        0.1007
     23 N           0.0000    0.0000    0.0000 N.ar    1  UNL1       -0.2250
     24 C           0.0000    0.0000    0.0000 C.ar    1  UNL1        0.1231
     25 N           0.0000    0.0000    0.0000 N.ar    1  UNL1       -0.1676
     26 C           0.0000    0.0000    0.0000 C.3     1  UNL1        0.1203
@<TRIPOS>BOND
     1     1     2    1
     2     2     3    1
     3     3     4    2
     4     3     5    2
     5     3     6    1
     6     6     7    1
     7     7     8    1
     8     8     9    1
     9     9    10    1
    10    10    11    3
    11     8    12    1
    12    12    13   ar
    13    13    14   ar
    14    14    15    1
    15    15    16   ar
    16    16    17   ar
    17    17    18   ar
    18    18    19   ar
    19    19    20   ar
    20    15    20   ar
    21    20    21   ar
    22    21    22   ar
    23    22    23   ar
    24    19    23   ar
    25    14    24   ar
    26    24    25   ar
    27    12    25   ar
    28     8    26    1
    29     6    26    1
