@<TRIPOS>MOLECULE
*****
 29 32 0 0 0
SMALL
GASTEIGER

@<TRIPOS>ATOM
      1 O           0.0000    0.0000    0.0000 O.2     1  UNL1       -0.2863
      2 C           0.0000    0.0000    0.0000 C.2     1  UNL1        0.2309
      3 C           0.0000    0.0000    0.0000 C.3     1  UNL1        0.1856
      4 N           0.0000    0.0000    0.0000 N.pl3   1  UNL1       -0.2117
      5 C           0.0000    0.0000    0.0000 C.ar    1  UNL1        0.1527
      6 N           0.0000    0.0000    0.0000 N.ar    1  UNL1       -0.2074
      7 C           0.0000    0.0000    0.0000 C.ar    1  UNL1        0.2015
      8 N           0.0000    0.0000    0.0000 N.ar    1  UNL1       -0.2048
      9 C           0.0000    0.0000    0.0000 C.ar    1  UNL1        0.1669
     10 N           0.0000    0.0000    0.0000 N.ar    1  UNL1       -0.2248
     11 C           0.0000    0.0000    0.0000 C.ar    1  UNL1        0.1039
     12 C           0.0000    0.0000    0.0000 C.ar    1  UNL1        0.0638
     13 C           0.0000    0.0000    0.0000 C.2     1  UNL1        0.1981
     14 O           0.0000    0.0000    0.0000 O.2     1  UNL1       -0.2865
     15 C           0.0000    0.0000    0.0000 C.ar    1  UNL1        0.0498
     16 C           0.0000    0.0000    0.0000 C.ar    1  UNL1        0.0072
     17 C           0.0000    0.0000    0.0000 C.ar    1  UNL1        0.0376
     18 C           0.0000    0.0000    0.0000 C.ar    1  UNL1        0.1461
     19 O           0.0000    0.0000    0.0000 O.3     1  UNL1       -0.4535
     20 C           0.0000    0.0000    0.0000 C.ar    1  UNL1        0.1453
     21 C           0.0000    0.0000    0.0000 C.ar    1  UNL1        0.0375
     22 C           0.0000    0.0000    0.0000 C.ar    1  UNL1        0.0031
     23 C           0.0000    0.0000    0.0000 C.ar    1  UNL1        0.0002
     24 C           0.0000    0.0000    0.0000 C.ar    1  UNL1        0.0031
     25 C           0.0000    0.0000    0.0000 C.ar    1  UNL1        0.0375
     26 C           0.0000    0.0000    0.0000 C.ar    1  UNL1        0.0490
     27 C           0.0000    0.0000    0.0000 C.ar    1  UNL1        0.0638
     28 CL          0.0000    0.0000    0.0000 Cl      1  UNL1       -0.0820
     29 C           0.0000    0.0000    0.0000 C.ar    1  UNL1        0.0734
@<TRIPOS>BOND
     1     1     2    2
     2     2     3    1
     3     3     4    1
     4     4     5    1
     5     5     6   ar
     6     6     7   ar
     7     7     8   ar
     8     8     9   ar
     9     9    10   ar
    10    10    11   ar
    11    11    12   ar
    12    12    13    1
    13    13    14    2
    14    13    15    1
    15    15    16   ar
    16    16    17   ar
    17    17    18   ar
    18    18    19    1
    19    19    20    1
    20    20    21   ar
    21    21    22   ar
    22    22    23   ar
    23    23    24   ar
    24    24    25   ar
    25    20    25   ar
    26    18    26   ar
    27    26    27   ar
    28    15    27   ar
    29    27    28    1
    30    12    29   ar
    31     5    29   ar
    32     9    29   ar
