@<TRIPOS>MOLECULE
*****
 21 22 0 0 0
SMALL
GASTEIGER

@<TRIPOS>ATOM
      1 C           0.0000    0.0000    0.0000 C.3     1  UNL1        0.2525
      2 O           0.0000    0.0000    0.0000 O.3     1  UNL1       -0.4716
      3 C           0.0000    0.0000    0.0000 C.ar    1  UNL1        0.1376
      4 C           0.0000    0.0000    0.0000 C.ar    1  UNL1        0.0368
      5 C           0.0000    0.0000    0.0000 C.ar    1  UNL1        0.0071
      6 C           0.0000    0.0000    0.0000 C.ar    1  UNL1        0.0134
      7 C           0.0000    0.0000    0.0000 C.ar    1  UNL1        0.0780
      8 N           0.0000    0.0000    0.0000 N.ar    1  UNL1       -0.2924
      9 C           0.0000    0.0000    0.0000 C.3     1  UNL1        0.1336
     10 C           0.0000    0.0000    0.0000 C.ar    1  UNL1        0.2566
     11 O           0.0000    0.0000    0.0000 O.2     1  UNL1       -0.2673
     12 C           0.0000    0.0000    0.0000 C.ar    1  UNL1        0.0304
     13 C           0.0000    0.0000    0.0000 C.3     1  UNL1        0.0357
     14 C           0.0000    0.0000    0.0000 C.ar    1  UNL1       -0.0198
     15 C           0.0000    0.0000    0.0000 C.3     1  UNL1        0.0309
     16 C           0.0000    0.0000    0.0000 C.ar    1  UNL1        0.0368
     17 C           0.0000    0.0000    0.0000 C.ar    1  UNL1        0.1376
     18 O           0.0000    0.0000    0.0000 O.3     1  UNL1       -0.4716
     19 C           0.0000    0.0000    0.0000 C.3     1  UNL1        0.2525
     20 C           0.0000    0.0000    0.0000 C.ar    1  UNL1        0.0460
     21 C           0.0000    0.0000    0.0000 C.3     1  UNL1        0.0374
@<TRIPOS>BOND
     1     1     2    1
     2     2     3    1
     3     3     4   ar
     4     4     5   ar
     5     5     6    1
     6     6     7   ar
     7     7     8   ar
     8     8     9    1
     9     8    10   ar
    10    10    11    2
    11    10    12   ar
    12    12    13    1
    13    12    14   ar
    14     6    14   ar
    15    14    15    1
    16     5    16   ar
    17    16    17   ar
    18    17    18    1
    19    18    19    1
    20    17    20   ar
    21     3    20   ar
    22    20    21    1
