@<TRIPOS>MOLECULE
*****
 34 37 0 0 0
SMALL
GASTEIGER

@<TRIPOS>ATOM
      1 C           0.0000    0.0000    0.0000 C.3     1  UNL1        0.0896
      2 N           0.0000    0.0000    0.0000 N.3     1  UNL1       -0.2715
      3 C           0.0000    0.0000    0.0000 C.3     1  UNL1        0.0725
      4 C           0.0000    0.0000    0.0000 C.3     1  UNL1        0.0217
      5 C           0.0000    0.0000    0.0000 C.3     1  UNL1        0.0251
      6 C           0.0000    0.0000    0.0000 C.ar    1  UNL1       -0.0223
      7 C           0.0000    0.0000    0.0000 C.ar    1  UNL1       -0.0030
      8 C           0.0000    0.0000    0.0000 C.ar    1  UNL1        0.0146
      9 C           0.0000    0.0000    0.0000 C.ar    1  UNL1        0.0532
     10 N           0.0000    0.0000    0.0000 N.am    1  UNL1       -0.2647
     11 C           0.0000    0.0000    0.0000 C.2     1  UNL1        0.1517
     12 S           0.0000    0.0000    0.0000 S.2     1  UNL1       -0.0174
     13 N           0.0000    0.0000    0.0000 N.am    1  UNL1       -0.2184
     14 C           0.0000    0.0000    0.0000 C.ar    1  UNL1        0.0597
     15 C           0.0000    0.0000    0.0000 C.ar    1  UNL1        0.0160
     16 C           0.0000    0.0000    0.0000 C.ar    1  UNL1        0.0115
     17 C           0.0000    0.0000    0.0000 C.ar    1  UNL1        0.0724
     18 C           0.0000    0.0000    0.0000 C.1     1  UNL1        0.1004
     19 N           0.0000    0.0000    0.0000 N.1     1  UNL1       -0.1908
     20 C           0.0000    0.0000    0.0000 C.ar    1  UNL1        0.0823
     21 C           0.0000    0.0000    0.0000 C.3     1  UNL1        0.4192
     22 F           0.0000    0.0000    0.0000 F       1  UNL1       -0.1658
     23 F           0.0000    0.0000    0.0000 F       1  UNL1       -0.1658
     24 F           0.0000    0.0000    0.0000 F       1  UNL1       -0.1658
     25 C           0.0000    0.0000    0.0000 C.ar    1  UNL1        0.0198
     26 C           0.0000    0.0000    0.0000 C.2     1  UNL1        0.2507
     27 O           0.0000    0.0000    0.0000 O.2     1  UNL1       -0.2724
     28 C           0.0000    0.0000    0.0000 C.3     1  UNL1        0.1327
     29 C           0.0000    0.0000    0.0000 C.3     1  UNL1        0.0296
     30 C           0.0000    0.0000    0.0000 C.3     1  UNL1        0.0296
     31 C           0.0000    0.0000    0.0000 C.ar    1  UNL1        0.0146
     32 C           0.0000    0.0000    0.0000 C.ar    1  UNL1       -0.0030
     33 C           0.0000    0.0000    0.0000 C.3     1  UNL1        0.0217
     34 C           0.0000    0.0000    0.0000 C.3     1  UNL1        0.0725
@<TRIPOS>BOND
     1     1     2    1
     2     2     3    1
     3     3     4    1
     4     4     5    1
     5     5     6    1
     6     6     7   ar
     7     7     8   ar
     8     8     9   ar
     9     9    10    1
    10    10    11    1
    11    11    12    2
    12    11    13    1
    13    13    14    1
    14    14    15   ar
    15    15    16   ar
    16    16    17   ar
    17    17    18    1
    18    18    19    3
    19    17    20   ar
    20    20    21    1
    21    21    22    1
    22    21    23    1
    23    21    24    1
    24    20    25   ar
    25    14    25   ar
    26    13    26   am
    27    26    27    2
    28    26    28    1
    29    10    28    1
    30    28    29    1
    31    28    30    1
    32     9    31   ar
    33    31    32   ar
    34     6    32   ar
    35     5    33    1
    36    33    34    1
    37     2    34    1
