@<TRIPOS>MOLECULE
*****
 28 31 0 0 0
SMALL
GASTEIGER

@<TRIPOS>ATOM
      1 C           0.0000    0.0000    0.0000 C.3     1  UNL1        0.0336
      2 C           0.0000    0.0000    0.0000 C.3     1  UNL1        0.1328
      3 O           0.0000    0.0000    0.0000 O.3     1  UNL1       -0.3547
      4 C           0.0000    0.0000    0.0000 C.3     1  UNL1        0.1435
      5 C           0.0000    0.0000    0.0000 C.3     1  UNL1        0.0493
      6 C           0.0000    0.0000    0.0000 C.3     1  UNL1        0.0254
      7 C           0.0000    0.0000    0.0000 C.3     1  UNL1        0.0923
      8 N           0.0000    0.0000    0.0000 N.pl3   1  UNL1       -0.2920
      9 C           0.0000    0.0000    0.0000 C.ar    1  UNL1        0.1526
     10 C           0.0000    0.0000    0.0000 C.ar    1  UNL1        0.1337
     11 N           0.0000    0.0000    0.0000 N.ar    1  UNL1       -0.2314
     12 C           0.0000    0.0000    0.0000 C.ar    1  UNL1        0.1456
     13 S           0.0000    0.0000    0.0000 S.3     1  UNL1       -0.0643
     14 C           0.0000    0.0000    0.0000 C.ar    1  UNL1        0.0428
     15 C           0.0000    0.0000    0.0000 C.ar    1  UNL1        0.0075
     16 C           0.0000    0.0000    0.0000 C.ar    1  UNL1        0.0020
     17 C           0.0000    0.0000    0.0000 C.ar    1  UNL1        0.0189
     18 C           0.0000    0.0000    0.0000 C.ar    1  UNL1        0.1001
     19 N           0.0000    0.0000    0.0000 N.pl3   1  UNL1       -0.1272
     20 C           0.0000    0.0000    0.0000 C.ar    1  UNL1        0.0803
     21 CL          0.0000    0.0000    0.0000 Cl      1  UNL1       -0.0803
     22 C           0.0000    0.0000    0.0000 C.ar    1  UNL1        0.1948
     23 N           0.0000    0.0000    0.0000 N.pl3   1  UNL1       -0.1050
     24 N           0.0000    0.0000    0.0000 N.ar    1  UNL1       -0.2092
     25 C           0.0000    0.0000    0.0000 C.3     1  UNL1        0.0923
     26 C           0.0000    0.0000    0.0000 C.3     1  UNL1        0.0254
     27 C           0.0000    0.0000    0.0000 C.3     1  UNL1        0.1212
     28 N           0.0000    0.0000    0.0000 N.3     1  UNL1       -0.1303
@<TRIPOS>BOND
     1     1     2    1
     2     2     3    1
     3     3     4    1
     4     4     5    1
     5     5     6    1
     6     6     7    1
     7     7     8    1
     8     8     9    1
     9     9    10   ar
    10    10    11   ar
    11    11    12   ar
    12    12    13    1
    13    13    14    1
    14    14    15   ar
    15    15    16   ar
    16    16    17   ar
    17    17    18   ar
    18    18    19    1
    19    18    20   ar
    20    14    20   ar
    21    20    21    1
    22    12    22   ar
    23    22    23    1
    24    22    24   ar
    25     9    24   ar
    26     8    25    1
    27    25    26    1
    28     5    26    1
    29     5    27    1
    30     2    27    1
    31    27    28    1
