@<TRIPOS>MOLECULE
*****
 16 18 0 0 0
SMALL
GASTEIGER

@<TRIPOS>ATOM
      1 C           0.0000    0.0000    0.0000 C.ar    1  UNL1        0.0435
      2 C           0.0000    0.0000    0.0000 C.ar    1  UNL1        0.1792
      3 O           0.0000    0.0000    0.0000 O.2     1  UNL1       -0.4529
      4 C           0.0000    0.0000    0.0000 C.ar    1  UNL1        0.1449
      5 C           0.0000    0.0000    0.0000 C.3     1  UNL1        0.1793
      6 N           0.0000    0.0000    0.0000 N.pl3   1  UNL1       -0.1967
      7 C           0.0000    0.0000    0.0000 C.ar    1  UNL1        0.2242
      8 N           0.0000    0.0000    0.0000 N.ar    1  UNL1       -0.2119
      9 C           0.0000    0.0000    0.0000 C.ar    1  UNL1        0.1050
     10 C           0.0000    0.0000    0.0000 C.ar    1  UNL1        0.0600
     11 C           0.0000    0.0000    0.0000 C.ar    1  UNL1        0.1740
     12 N           0.0000    0.0000    0.0000 N.ar    1  UNL1       -0.1282
     13 N           0.0000    0.0000    0.0000 N.ar    1  UNL1       -0.1251
     14 C           0.0000    0.0000    0.0000 C.ar    1  UNL1        0.2090
     15 N           0.0000    0.0000    0.0000 N.ar    1  UNL1       -0.2424
     16 C           0.0000    0.0000    0.0000 C.ar    1  UNL1        0.0380
@<TRIPOS>BOND
     1     1     2   ar
     2     2     3   ar
     3     3     4   ar
     4     4     5    1
     5     5     6    1
     6     6     7    1
     7     7     8   ar
     8     8     9   ar
     9     9    10   ar
    10    10    11   ar
    11    11    12   ar
    12    12    13   ar
    13    13    14   ar
    14    14    15   ar
    15     7    15   ar
    16    11    15   ar
    17     4    16   ar
    18     1    16   ar
