@<TRIPOS>MOLECULE
*****
 26 29 0 0 0
SMALL
GASTEIGER

@<TRIPOS>ATOM
      1 C           0.0000    0.0000    0.0000 C.3     1  UNL1        0.0379
      2 C           0.0000    0.0000    0.0000 C.ar    1  UNL1        0.0051
      3 S           0.0000    0.0000    0.0000 S.2     1  UNL1       -0.0740
      4 C           0.0000    0.0000    0.0000 C.ar    1  UNL1        0.0970
      5 C           0.0000    0.0000    0.0000 C.ar    1  UNL1        0.0359
      6 C           0.0000    0.0000    0.0000 C.ar    1  UNL1       -0.0165
      7 C           0.0000    0.0000    0.0000 C.3     1  UNL1        0.0313
      8 C           0.0000    0.0000    0.0000 C.2     1  UNL1        0.0780
      9 C           0.0000    0.0000    0.0000 C.ar    1  UNL1        0.0174
     10 C           0.0000    0.0000    0.0000 C.ar    1  UNL1        0.0023
     11 C           0.0000    0.0000    0.0000 C.ar    1  UNL1        0.0114
     12 C           0.0000    0.0000    0.0000 C.ar    1  UNL1        0.0577
     13 CL          0.0000    0.0000    0.0000 Cl      1  UNL1       -0.0822
     14 C           0.0000    0.0000    0.0000 C.ar    1  UNL1        0.0114
     15 C           0.0000    0.0000    0.0000 C.ar    1  UNL1        0.0023
     16 N           0.0000    0.0000    0.0000 N.2     1  UNL1       -0.2642
     17 C           0.0000    0.0000    0.0000 C.3     1  UNL1        0.1694
     18 C           0.0000    0.0000    0.0000 C.3     1  UNL1        0.1042
     19 C           0.0000    0.0000    0.0000 C.2     1  UNL1        0.2099
     20 O           0.0000    0.0000    0.0000 O.2     1  UNL1       -0.2882
     21 C           0.0000    0.0000    0.0000 C.ar    1  UNL1        0.1701
     22 N           0.0000    0.0000    0.0000 N.ar    1  UNL1       -0.1313
     23 N           0.0000    0.0000    0.0000 N.ar    1  UNL1       -0.1332
     24 C           0.0000    0.0000    0.0000 C.ar    1  UNL1        0.1477
     25 C           0.0000    0.0000    0.0000 C.3     1  UNL1        0.0742
     26 N           0.0000    0.0000    0.0000 N.ar    1  UNL1       -0.2736
@<TRIPOS>BOND
     1     1     2    1
     2     2     3   ar
     3     3     4   ar
     4     4     5   ar
     5     5     6   ar
     6     2     6   ar
     7     6     7    1
     8     5     8    1
     9     8     9    1
    10     9    10   ar
    11    10    11   ar
    12    11    12   ar
    13    12    13    1
    14    12    14   ar
    15    14    15   ar
    16     9    15   ar
    17     8    16    2
    18    16    17    1
    19    17    18    1
    20    18    19    1
    21    19    20    2
    22    17    21    1
    23    21    22   ar
    24    22    23   ar
    25    23    24   ar
    26    24    25    1
    27    24    26   ar
    28    21    26   ar
    29     4    26    1
