@<TRIPOS>MOLECULE
*****
 25 27 0 0 0
SMALL
GASTEIGER

@<TRIPOS>ATOM
      1 C           0.0000    0.0000    0.0000 C.3     1  UNL1        0.0379
      2 C           0.0000    0.0000    0.0000 C.ar    1  UNL1        0.0051
      3 S           0.0000    0.0000    0.0000 S.2     1  UNL1       -0.0740
      4 C           0.0000    0.0000    0.0000 C.ar    1  UNL1        0.0973
      5 N           0.0000    0.0000    0.0000 N.ar    1  UNL1       -0.2692
      6 C           0.0000    0.0000    0.0000 C.ar    1  UNL1        0.2070
      7 N           0.0000    0.0000    0.0000 N.ar    1  UNL1       -0.1255
      8 N           0.0000    0.0000    0.0000 N.ar    1  UNL1       -0.1329
      9 C           0.0000    0.0000    0.0000 C.ar    1  UNL1        0.1479
     10 C           0.0000    0.0000    0.0000 C.3     1  UNL1        0.0742
     11 C           0.0000    0.0000    0.0000 C.ar    1  UNL1        0.0380
     12 C           0.0000    0.0000    0.0000 C.2     1  UNL1        0.1044
     13 N           0.0000    0.0000    0.0000 N.2     1  UNL1       -0.1479
     14 C           0.0000    0.0000    0.0000 C.ar    1  UNL1        0.0195
     15 C           0.0000    0.0000    0.0000 C.ar    1  UNL1        0.0022
     16 C           0.0000    0.0000    0.0000 C.ar    1  UNL1        0.0083
     17 C           0.0000    0.0000    0.0000 C.ar    1  UNL1        0.0417
     18 C           0.0000    0.0000    0.0000 C.1     1  UNL1       -0.0629
     19 C           0.0000    0.0000    0.0000 C.1     1  UNL1       -0.0654
     20 C           0.0000    0.0000    0.0000 C.3     1  UNL1        0.1849
     21 N           0.0000    0.0000    0.0000 N.3     1  UNL1       -0.1160
     22 C           0.0000    0.0000    0.0000 C.ar    1  UNL1        0.0083
     23 C           0.0000    0.0000    0.0000 C.ar    1  UNL1        0.0022
     24 C           0.0000    0.0000    0.0000 C.ar    1  UNL1       -0.0164
     25 C           0.0000    0.0000    0.0000 C.3     1  UNL1        0.0313
@<TRIPOS>BOND
     1     1     2    1
     2     2     3   ar
     3     3     4   ar
     4     4     5    1
     5     5     6   ar
     6     6     7   ar
     7     7     8   ar
     8     8     9   ar
     9     5     9   ar
    10     9    10    1
    11     4    11   ar
    12    11    12    1
    13    12    13    2
    14    12    14    1
    15    14    15   ar
    16    15    16   ar
    17    16    17   ar
    18    17    18    1
    19    18    19    3
    20    19    20    1
    21    20    21    1
    22    17    22   ar
    23    22    23   ar
    24    14    23   ar
    25    11    24   ar
    26     2    24   ar
    27    24    25    1
