@<TRIPOS>MOLECULE
*****
 33 36 0 0 0
SMALL
GASTEIGER

@<TRIPOS>ATOM
      1 C           0.0000    0.0000    0.0000 C.3     1  UNL1        0.0948
      2 C           0.0000    0.0000    0.0000 C.2     1  UNL1        0.2262
      3 O           0.0000    0.0000    0.0000 O.2     1  UNL1       -0.2749
      4 N           0.0000    0.0000    0.0000 N.am    1  UNL1       -0.2760
      5 C           0.0000    0.0000    0.0000 C.3     1  UNL1        0.1149
      6 C           0.0000    0.0000    0.0000 C.3     1  UNL1        0.1137
      7 N           0.0000    0.0000    0.0000 N.pl3   1  UNL1       -0.2896
      8 C           0.0000    0.0000    0.0000 C.ar    1  UNL1        0.1360
      9 C           0.0000    0.0000    0.0000 C.ar    1  UNL1        0.0705
     10 C           0.0000    0.0000    0.0000 C.ar    1  UNL1        0.1578
     11 N           0.0000    0.0000    0.0000 N.pl3   1  UNL1       -0.1696
     12 C           0.0000    0.0000    0.0000 C.ar    1  UNL1        0.1849
     13 N           0.0000    0.0000    0.0000 N.ar    1  UNL1       -0.2208
     14 C           0.0000    0.0000    0.0000 C.ar    1  UNL1        0.1120
     15 C           0.0000    0.0000    0.0000 C.ar    1  UNL1        0.1065
     16 C           0.0000    0.0000    0.0000 C.2     1  UNL1        0.2766
     17 O           0.0000    0.0000    0.0000 O.2     1  UNL1       -0.2674
     18 N           0.0000    0.0000    0.0000 N.am    1  UNL1       -0.1744
     19 C           0.0000    0.0000    0.0000 C.ar    1  UNL1        0.0802
     20 C           0.0000    0.0000    0.0000 C.ar    1  UNL1       -0.0057
     21 C           0.0000    0.0000    0.0000 C.3     1  UNL1        0.0324
     22 C           0.0000    0.0000    0.0000 C.ar    1  UNL1       -0.0029
     23 C           0.0000    0.0000    0.0000 C.ar    1  UNL1        0.0006
     24 C           0.0000    0.0000    0.0000 C.ar    1  UNL1        0.0127
     25 C           0.0000    0.0000    0.0000 C.ar    1  UNL1        0.0726
     26 CL          0.0000    0.0000    0.0000 Cl      1  UNL1       -0.0809
     27 S           0.0000    0.0000    0.0000 S.2     1  UNL1       -0.0450
     28 N           0.0000    0.0000    0.0000 N.ar    1  UNL1       -0.2141
     29 C           0.0000    0.0000    0.0000 C.ar    1  UNL1        0.1424
     30 C           0.0000    0.0000    0.0000 C.3     1  UNL1        0.0738
     31 N           0.0000    0.0000    0.0000 N.ar    1  UNL1       -0.2159
     32 C           0.0000    0.0000    0.0000 C.3     1  UNL1        0.1137
     33 C           0.0000    0.0000    0.0000 C.3     1  UNL1        0.1149
@<TRIPOS>BOND
     1     1     2    1
     2     2     3    2
     3     2     4   am
     4     4     5    1
     5     5     6    1
     6     6     7    1
     7     7     8    1
     8     8     9   ar
     9     9    10   ar
    10    10    11    1
    11    11    12    1
    12    12    13   ar
    13    13    14   ar
    14    14    15   ar
    15    15    16    1
    16    16    17    2
    17    16    18   am
    18    18    19    1
    19    19    20   ar
    20    20    21    1
    21    20    22   ar
    22    22    23   ar
    23    23    24   ar
    24    24    25   ar
    25    19    25   ar
    26    25    26    1
    27    15    27   ar
    28    12    27   ar
    29    10    28   ar
    30    28    29   ar
    31    29    30    1
    32    29    31   ar
    33     8    31   ar
    34     7    32    1
    35    32    33    1
    36     4    33    1
