@<TRIPOS>MOLECULE
*****
 33 36 0 0 0
SMALL
GASTEIGER

@<TRIPOS>ATOM
      1 C           0.0000    0.0000    0.0000 C.3     1  UNL1        0.0948
      2 C           0.0000    0.0000    0.0000 C.2     1  UNL1        0.2262
      3 O           0.0000    0.0000    0.0000 O.2     1  UNL1       -0.2749
      4 N           0.0000    0.0000    0.0000 N.am    1  UNL1       -0.2775
      5 C           0.0000    0.0000    0.0000 C.3     1  UNL1        0.0935
      6 C           0.0000    0.0000    0.0000 C.3     1  UNL1        0.0236
      7 C           0.0000    0.0000    0.0000 C.3     1  UNL1        0.0279
      8 C           0.0000    0.0000    0.0000 C.3     1  UNL1        0.1264
      9 N           0.0000    0.0000    0.0000 N.ar    1  UNL1       -0.2350
     10 N           0.0000    0.0000    0.0000 N.ar    1  UNL1       -0.1680
     11 C           0.0000    0.0000    0.0000 C.ar    1  UNL1        0.1082
     12 C           0.0000    0.0000    0.0000 C.ar    1  UNL1        0.0198
     13 C           0.0000    0.0000    0.0000 C.ar    1  UNL1        0.0047
     14 C           0.0000    0.0000    0.0000 C.ar    1  UNL1        0.0375
     15 C           0.0000    0.0000    0.0000 C.ar    1  UNL1        0.1454
     16 O           0.0000    0.0000    0.0000 O.3     1  UNL1       -0.4512
     17 C           0.0000    0.0000    0.0000 C.ar    1  UNL1        0.1727
     18 C           0.0000    0.0000    0.0000 C.ar    1  UNL1        0.0421
     19 C           0.0000    0.0000    0.0000 C.ar    1  UNL1        0.0329
     20 C           0.0000    0.0000    0.0000 C.ar    1  UNL1        0.1426
     21 F           0.0000    0.0000    0.0000 F       1  UNL1       -0.2041
     22 C           0.0000    0.0000    0.0000 C.ar    1  UNL1        0.0624
     23 C           0.0000    0.0000    0.0000 C.ar    1  UNL1        0.1766
     24 F           0.0000    0.0000    0.0000 F       1  UNL1       -0.2009
     25 C           0.0000    0.0000    0.0000 C.ar    1  UNL1        0.0375
     26 C           0.0000    0.0000    0.0000 C.ar    1  UNL1        0.0047
     27 C           0.0000    0.0000    0.0000 C.ar    1  UNL1        0.1103
     28 C           0.0000    0.0000    0.0000 C.2     1  UNL1        0.2885
     29 N           0.0000    0.0000    0.0000 N.am    1  UNL1       -0.0836
     30 O           0.0000    0.0000    0.0000 O.2     1  UNL1       -0.2665
     31 C           0.0000    0.0000    0.0000 C.ar    1  UNL1        0.1728
     32 N           0.0000    0.0000    0.0000 N.pl3   1  UNL1       -0.1073
     33 C           0.0000    0.0000    0.0000 C.3     1  UNL1        0.1177
@<TRIPOS>BOND
     1     1     2    1
     2     2     3    2
     3     2     4   am
     4     4     5    1
     5     5     6    1
     6     6     7    1
     7     7     8    1
     8     8     9    1
     9     9    10   ar
    10    10    11   ar
    11    11    12    1
    12    12    13   ar
    13    13    14   ar
    14    14    15   ar
    15    15    16    1
    16    16    17    1
    17    17    18   ar
    18    18    19   ar
    19    19    20   ar
    20    20    21    1
    21    20    22   ar
    22    22    23   ar
    23    17    23   ar
    24    23    24    1
    25    15    25   ar
    26    25    26   ar
    27    12    26   ar
    28    11    27   ar
    29    27    28    1
    30    28    29   am
    31    28    30    2
    32    27    31   ar
    33     9    31   ar
    34    31    32    1
    35     8    33    1
    36     4    33    1
