@<TRIPOS>MOLECULE
*****
 26 28 0 0 0
SMALL
GASTEIGER

@<TRIPOS>ATOM
      1 C           0.0000    0.0000    0.0000 C.3     1  UNL1        0.0308
      2 C           0.0000    0.0000    0.0000 C.2     1  UNL1       -0.0223
      3 C           0.0000    0.0000    0.0000 C.2     1  UNL1        0.0359
      4 C           0.0000    0.0000    0.0000 C.2     1  UNL1        0.1033
      5 S           0.0000    0.0000    0.0000 S.2     1  UNL1       -0.0314
      6 N           0.0000    0.0000    0.0000 N.ar    1  UNL1       -0.2731
      7 C           0.0000    0.0000    0.0000 C.ar    1  UNL1        0.1477
      8 C           0.0000    0.0000    0.0000 C.3     1  UNL1        0.0742
      9 N           0.0000    0.0000    0.0000 N.ar    1  UNL1       -0.1332
     10 N           0.0000    0.0000    0.0000 N.ar    1  UNL1       -0.1313
     11 C           0.0000    0.0000    0.0000 C.ar    1  UNL1        0.1702
     12 C           0.0000    0.0000    0.0000 C.3     1  UNL1        0.1727
     13 C           0.0000    0.0000    0.0000 C.3     1  UNL1        0.1415
     14 C           0.0000    0.0000    0.0000 C.2     1  UNL1        0.3196
     15 O           0.0000    0.0000    0.0000 O.2     1  UNL1       -0.2500
     16 O           0.0000    0.0000    0.0000 O.3     1  UNL1       -0.4443
     17 C           0.0000    0.0000    0.0000 C.3     1  UNL1        0.2556
     18 N           0.0000    0.0000    0.0000 N.2     1  UNL1       -0.2640
     19 C           0.0000    0.0000    0.0000 C.2     1  UNL1        0.0780
     20 C           0.0000    0.0000    0.0000 C.ar    1  UNL1        0.0174
     21 C           0.0000    0.0000    0.0000 C.ar    1  UNL1        0.0023
     22 C           0.0000    0.0000    0.0000 C.ar    1  UNL1        0.0114
     23 C           0.0000    0.0000    0.0000 C.ar    1  UNL1        0.0577
     24 CL          0.0000    0.0000    0.0000 Cl      1  UNL1       -0.0822
     25 C           0.0000    0.0000    0.0000 C.ar    1  UNL1        0.0114
     26 C           0.0000    0.0000    0.0000 C.ar    1  UNL1        0.0023
@<TRIPOS>BOND
     1     1     2    1
     2     2     3    2
     3     3     4    1
     4     4     5    2
     5     4     6    1
     6     6     7   ar
     7     7     8    1
     8     7     9   ar
     9     9    10   ar
    10    10    11   ar
    11     6    11   ar
    12    11    12    1
    13    12    13    1
    14    13    14    1
    15    14    15    2
    16    14    16    1
    17    16    17    1
    18    12    18    1
    19    18    19    2
    20     3    19    1
    21    19    20    1
    22    20    21   ar
    23    21    22   ar
    24    22    23   ar
    25    23    24    1
    26    23    25   ar
    27    25    26   ar
    28    20    26   ar
