@<TRIPOS>MOLECULE
*****
 24 25 0 0 0
SMALL
GASTEIGER

@<TRIPOS>ATOM
      1 C           0.0000    0.0000    0.0000 C.3     1  UNL1        0.0047
      2 C           0.0000    0.0000    0.0000 C.3     1  UNL1        0.0242
      3 C           0.0000    0.0000    0.0000 C.2     1  UNL1       -0.0306
      4 C           0.0000    0.0000    0.0000 C.2     1  UNL1       -0.0246
      5 C           0.0000    0.0000    0.0000 C.2     1  UNL1       -0.0091
      6 C           0.0000    0.0000    0.0000 C.2     1  UNL1       -0.0268
      7 C           0.0000    0.0000    0.0000 C.3     1  UNL1        0.0224
      8 C           0.0000    0.0000    0.0000 C.3     1  UNL1        0.0047
      9 C           0.0000    0.0000    0.0000 C.3     1  UNL1        0.0106
     10 C           0.0000    0.0000    0.0000 C.3     1  UNL1        0.0033
     11 C           0.0000    0.0000    0.0000 C.3     1  UNL1        0.0330
     12 C           0.0000    0.0000    0.0000 C.3     1  UNL1        0.1546
     13 O           0.0000    0.0000    0.0000 O.3     1  UNL1       -0.2231
     14 C           0.0000    0.0000    0.0000 C.3     1  UNL1        0.0663
     15 C           0.0000    0.0000    0.0000 C.3     1  UNL1        0.1658
     16 O           0.0000    0.0000    0.0000 O.3     1  UNL1       -0.2225
     17 C           0.0000    0.0000    0.0000 C.3     1  UNL1        0.1469
     18 C           0.0000    0.0000    0.0000 C.2     1  UNL1        0.3674
     19 O           0.0000    0.0000    0.0000 O.co2   1  UNL1       -0.2456
     20 O           0.0000    0.0000    0.0000 O.co2   1  UNL1       -0.2456
     21 C           0.0000    0.0000    0.0000 C.3     1  UNL1        0.0527
     22 C           0.0000    0.0000    0.0000 C.3     1  UNL1        0.1563
     23 O           0.0000    0.0000    0.0000 O.3     1  UNL1       -0.2228
     24 C           0.0000    0.0000    0.0000 C.3     1  UNL1        0.0375
@<TRIPOS>BOND
     1     1     2    1
     2     2     3    1
     3     3     4    2
     4     4     5    1
     5     5     6    2
     6     6     7    1
     7     7     8    1
     8     7     9    1
     9     9    10    1
    10    10    11    1
    11    11    12    1
    12    12    13    1
    13    12    14    1
    14    14    15    1
    15    15    16    1
    16    15    17    1
    17    17    18    1
    18    18    19   ar
    19    18    20   ar
    20     9    21    1
    21     4    21    1
    22    21    22    1
    23    22    23    1
    24    22    24    1
    25     2    24    1
