@<TRIPOS>MOLECULE
*****
 36 38 0 0 0
SMALL
GASTEIGER

@<TRIPOS>ATOM
      1 C           0.0000    0.0000    0.0000 C.3     1  UNL1        0.0513
      2 C           0.0000    0.0000    0.0000 C.3     1  UNL1        0.2089
      3 O           0.0000    0.0000    0.0000 O.3     1  UNL1       -0.4444
      4 C           0.0000    0.0000    0.0000 C.2     1  UNL1        0.3589
      5 O           0.0000    0.0000    0.0000 O.2     1  UNL1       -0.2432
      6 C           0.0000    0.0000    0.0000 C.ar    1  UNL1        0.1547
      7 C           0.0000    0.0000    0.0000 C.ar    1  UNL1        0.0301
      8 C           0.0000    0.0000    0.0000 C.3     1  UNL1        0.1788
      9 C           0.0000    0.0000    0.0000 C.2     1  UNL1        0.2638
     10 O           0.0000    0.0000    0.0000 O.2     1  UNL1       -0.2712
     11 N           0.0000    0.0000    0.0000 N.am    1  UNL1       -0.2072
     12 C           0.0000    0.0000    0.0000 C.3     1  UNL1        0.0788
     13 C           0.0000    0.0000    0.0000 C.3     1  UNL1        0.0217
     14 C           0.0000    0.0000    0.0000 C.3     1  UNL1        0.0217
     15 C           0.0000    0.0000    0.0000 C.3     1  UNL1        0.0217
     16 N           0.0000    0.0000    0.0000 N.am    1  UNL1       -0.2581
     17 C           0.0000    0.0000    0.0000 C.2     1  UNL1        0.3037
     18 O           0.0000    0.0000    0.0000 O.2     1  UNL1       -0.2649
     19 C           0.0000    0.0000    0.0000 C.3     1  UNL1        0.1214
     20 C           0.0000    0.0000    0.0000 C.ar    1  UNL1        0.0023
     21 C           0.0000    0.0000    0.0000 C.ar    1  UNL1        0.0295
     22 C           0.0000    0.0000    0.0000 C.ar    1  UNL1        0.1694
     23 F           0.0000    0.0000    0.0000 F       1  UNL1       -0.2017
     24 C           0.0000    0.0000    0.0000 C.ar    1  UNL1        0.1946
     25 F           0.0000    0.0000    0.0000 F       1  UNL1       -0.1994
     26 C           0.0000    0.0000    0.0000 C.ar    1  UNL1        0.1694
     27 F           0.0000    0.0000    0.0000 F       1  UNL1       -0.2017
     28 C           0.0000    0.0000    0.0000 C.ar    1  UNL1        0.0295
     29 C           0.0000    0.0000    0.0000 C.ar    1  UNL1        0.0174
     30 C           0.0000    0.0000    0.0000 C.ar    1  UNL1        0.0022
     31 C           0.0000    0.0000    0.0000 C.ar    1  UNL1        0.0115
     32 C           0.0000    0.0000    0.0000 C.ar    1  UNL1        0.0592
     33 CL          0.0000    0.0000    0.0000 Cl      1  UNL1       -0.0822
     34 C           0.0000    0.0000    0.0000 C.ar    1  UNL1        0.0305
     35 C           0.0000    0.0000    0.0000 C.ar    1  UNL1        0.0821
     36 N           0.0000    0.0000    0.0000 N.ar    1  UNL1       -0.2391
@<TRIPOS>BOND
     1     1     2    1
     2     2     3    1
     3     3     4    1
     4     4     5    2
     5     4     6    1
     6     6     7   ar
     7     7     8    1
     8     8     9    1
     9     9    10    2
    10     9    11   am
    11    11    12    1
    12    12    13    1
    13    12    14    1
    14    12    15    1
    15     8    16    1
    16    16    17   am
    17    17    18    2
    18    16    19    1
    19    19    20    1
    20    20    21   ar
    21    21    22   ar
    22    22    23    1
    23    22    24   ar
    24    24    25    1
    25    24    26   ar
    26    26    27    1
    27    26    28   ar
    28    20    28   ar
    29     7    29   ar
    30    29    30   ar
    31    30    31   ar
    32    31    32   ar
    33    32    33    1
    34    32    34   ar
    35    34    35   ar
    36    29    35   ar
    37    35    36   ar
    38     6    36   ar
