@<TRIPOS>MOLECULE
*****
 36 39 0 0 0
SMALL
GASTEIGER

@<TRIPOS>ATOM
      1 O           0.0000    0.0000    0.0000 O.2     1  UNL1       -0.2831
      2 C           0.0000    0.0000    0.0000 C.2     1  UNL1        0.2342
      3 C           0.0000    0.0000    0.0000 C.ar    1  UNL1        0.0423
      4 C           0.0000    0.0000    0.0000 C.ar    1  UNL1        0.0048
      5 C           0.0000    0.0000    0.0000 C.ar    1  UNL1        0.0193
      6 C           0.0000    0.0000    0.0000 C.ar    1  UNL1        0.0829
      7 N           0.0000    0.0000    0.0000 N.ar    1  UNL1       -0.2270
      8 C           0.0000    0.0000    0.0000 C.ar    1  UNL1        0.1183
      9 C           0.0000    0.0000    0.0000 C.ar    1  UNL1        0.1134
     10 N           0.0000    0.0000    0.0000 N.am    1  UNL1       -0.1710
     11 C           0.0000    0.0000    0.0000 C.2     1  UNL1        0.2900
     12 O           0.0000    0.0000    0.0000 O.2     1  UNL1       -0.2662
     13 C           0.0000    0.0000    0.0000 C.ar    1  UNL1        0.1770
     14 C           0.0000    0.0000    0.0000 C.ar    1  UNL1        0.2052
     15 O           0.0000    0.0000    0.0000 O.2     1  UNL1       -0.4313
     16 C           0.0000    0.0000    0.0000 C.ar    1  UNL1        0.2301
     17 C           0.0000    0.0000    0.0000 C.ar    1  UNL1        0.0579
     18 C           0.0000    0.0000    0.0000 C.ar    1  UNL1        0.0254
     19 C           0.0000    0.0000    0.0000 C.ar    1  UNL1        0.1005
     20 N           0.0000    0.0000    0.0000 N.ar    1  UNL1       -0.2277
     21 C           0.0000    0.0000    0.0000 C.ar    1  UNL1        0.1479
     22 N           0.0000    0.0000    0.0000 N.pl3   1  UNL1       -0.2112
     23 C           0.0000    0.0000    0.0000 C.3     1  UNL1        0.2166
     24 C           0.0000    0.0000    0.0000 C.3     1  UNL1        0.4174
     25 F           0.0000    0.0000    0.0000 F       1  UNL1       -0.1681
     26 F           0.0000    0.0000    0.0000 F       1  UNL1       -0.1681
     27 F           0.0000    0.0000    0.0000 F       1  UNL1       -0.1681
     28 C           0.0000    0.0000    0.0000 C.ar    1  UNL1        0.0404
     29 N           0.0000    0.0000    0.0000 N.ar    1  UNL1       -0.2034
     30 C           0.0000    0.0000    0.0000 C.ar    1  UNL1        0.1616
     31 C           0.0000    0.0000    0.0000 C.3     1  UNL1        0.3611
     32 F           0.0000    0.0000    0.0000 F       1  UNL1       -0.1914
     33 F           0.0000    0.0000    0.0000 F       1  UNL1       -0.1914
     34 N           0.0000    0.0000    0.0000 N.ar    1  UNL1       -0.1625
     35 C           0.0000    0.0000    0.0000 C.ar    1  UNL1        0.0193
     36 C           0.0000    0.0000    0.0000 C.ar    1  UNL1        0.0048
@<TRIPOS>BOND
     1     1     2    2
     2     2     3    1
     3     3     4   ar
     4     4     5   ar
     5     5     6   ar
     6     6     7    1
     7     7     8   ar
     8     8     9   ar
     9     9    10    1
    10    10    11   am
    11    11    12    2
    12    11    13    1
    13    13    14   ar
    14    14    15   ar
    15    15    16   ar
    16    16    17    1
    17    17    18   ar
    18    18    19   ar
    19    19    20   ar
    20    20    21   ar
    21    21    22    1
    22    22    23    1
    23    23    24    1
    24    24    25    1
    25    24    26    1
    26    24    27    1
    27    21    28   ar
    28    17    28   ar
    29    16    29   ar
    30    13    29   ar
    31     9    30   ar
    32    30    31    1
    33    31    32    1
    34    31    33    1
    35    30    34   ar
    36     7    34   ar
    37     6    35   ar
    38    35    36   ar
    39     3    36   ar
