@<TRIPOS>MOLECULE
*****
 34 38 0 0 0
SMALL
GASTEIGER

@<TRIPOS>ATOM
      1 C           0.0000    0.0000    0.0000 C.3     1  UNL1        0.2525
      2 O           0.0000    0.0000    0.0000 O.3     1  UNL1       -0.4714
      3 C           0.0000    0.0000    0.0000 C.ar    1  UNL1        0.1400
      4 C           0.0000    0.0000    0.0000 C.ar    1  UNL1        0.0370
      5 C           0.0000    0.0000    0.0000 C.ar    1  UNL1        0.0044
      6 C           0.0000    0.0000    0.0000 C.ar    1  UNL1        0.0168
      7 C           0.0000    0.0000    0.0000 C.ar    1  UNL1        0.0766
      8 N           0.0000    0.0000    0.0000 N.pl3   1  UNL1       -0.1776
      9 C           0.0000    0.0000    0.0000 C.ar    1  UNL1        0.2408
     10 N           0.0000    0.0000    0.0000 N.ar    1  UNL1       -0.2109
     11 C           0.0000    0.0000    0.0000 C.ar    1  UNL1        0.1010
     12 C           0.0000    0.0000    0.0000 C.ar    1  UNL1        0.0390
     13 C           0.0000    0.0000    0.0000 C.ar    1  UNL1        0.0836
     14 N           0.0000    0.0000    0.0000 N.ar    1  UNL1       -0.2124
     15 C           0.0000    0.0000    0.0000 C.ar    1  UNL1        0.0190
     16 C           0.0000    0.0000    0.0000 C.ar    1  UNL1        0.0024
     17 C           0.0000    0.0000    0.0000 C.ar    1  UNL1        0.0114
     18 C           0.0000    0.0000    0.0000 C.ar    1  UNL1        0.0577
     19 CL          0.0000    0.0000    0.0000 Cl      1  UNL1       -0.0822
     20 C           0.0000    0.0000    0.0000 C.ar    1  UNL1        0.0129
     21 C           0.0000    0.0000    0.0000 C.ar    1  UNL1        0.0197
     22 C           0.0000    0.0000    0.0000 C.2     1  UNL1        0.0815
     23 C           0.0000    0.0000    0.0000 C.ar    1  UNL1        0.0786
     24 C           0.0000    0.0000    0.0000 C.ar    1  UNL1        0.1444
     25 F           0.0000    0.0000    0.0000 F       1  UNL1       -0.2040
     26 C           0.0000    0.0000    0.0000 C.ar    1  UNL1        0.0299
     27 C           0.0000    0.0000    0.0000 C.ar    1  UNL1        0.0054
     28 C           0.0000    0.0000    0.0000 C.ar    1  UNL1        0.0371
     29 C           0.0000    0.0000    0.0000 C.ar    1  UNL1        0.1423
     30 O           0.0000    0.0000    0.0000 O.3     1  UNL1       -0.4713
     31 C           0.0000    0.0000    0.0000 C.3     1  UNL1        0.2525
     32 N           0.0000    0.0000    0.0000 N.2     1  UNL1       -0.2653
     33 C           0.0000    0.0000    0.0000 C.3     1  UNL1        0.1549
     34 C           0.0000    0.0000    0.0000 C.ar    1  UNL1        0.0535
@<TRIPOS>BOND
     1     1     2    1
     2     2     3    1
     3     3     4   ar
     4     4     5   ar
     5     5     6   ar
     6     6     7   ar
     7     7     8    1
     8     8     9    1
     9     9    10   ar
    10    10    11   ar
    11    11    12   ar
    12    12    13   ar
    13    13    14   ar
    14     9    14   ar
    15    13    15    1
    16    15    16   ar
    17    16    17   ar
    18    17    18   ar
    19    18    19    1
    20    18    20   ar
    21    20    21   ar
    22    15    21   ar
    23    21    22    1
    24    22    23    1
    25    23    24   ar
    26    24    25    1
    27    24    26   ar
    28    26    27   ar
    29    27    28   ar
    30    28    29   ar
    31    23    29   ar
    32    29    30    1
    33    30    31    1
    34    22    32    2
    35    32    33    1
    36    12    33    1
    37     7    34   ar
    38     3    34   ar
