@<TRIPOS>MOLECULE
*****
 26 29 0 0 0
SMALL
GASTEIGER

@<TRIPOS>ATOM
      1 O           0.0000    0.0000    0.0000 O.2     1  UNL1       -0.2650
      2 C           0.0000    0.0000    0.0000 C.ar    1  UNL1        0.2839
      3 N           0.0000    0.0000    0.0000 N.ar    1  UNL1       -0.1920
      4 C           0.0000    0.0000    0.0000 C.ar    1  UNL1        0.1532
      5 C           0.0000    0.0000    0.0000 C.3     1  UNL1        0.1230
      6 S           0.0000    0.0000    0.0000 S.3     1  UNL1       -0.1329
      7 C           0.0000    0.0000    0.0000 C.3     1  UNL1        0.0509
      8 C           0.0000    0.0000    0.0000 C.3     1  UNL1        0.0296
      9 C           0.0000    0.0000    0.0000 C.3     1  UNL1        0.0896
     10 N           0.0000    0.0000    0.0000 N.3     1  UNL1       -0.2180
     11 C           0.0000    0.0000    0.0000 C.3     1  UNL1        0.0896
     12 C           0.0000    0.0000    0.0000 C.3     1  UNL1        0.0296
     13 N           0.0000    0.0000    0.0000 N.ar    1  UNL1       -0.2295
     14 C           0.0000    0.0000    0.0000 C.ar    1  UNL1        0.0908
     15 C           0.0000    0.0000    0.0000 C.ar    1  UNL1        0.0355
     16 C           0.0000    0.0000    0.0000 C.ar    1  UNL1        0.0690
     17 N           0.0000    0.0000    0.0000 N.pl3   1  UNL1       -0.2392
     18 C           0.0000    0.0000    0.0000 C.3     1  UNL1        0.0925
     19 C           0.0000    0.0000    0.0000 C.3     1  UNL1        0.0216
     20 C           0.0000    0.0000    0.0000 C.3     1  UNL1        0.0018
     21 C           0.0000    0.0000    0.0000 C.3     1  UNL1        0.0018
     22 C           0.0000    0.0000    0.0000 C.3     1  UNL1        0.0216
     23 C           0.0000    0.0000    0.0000 C.ar    1  UNL1        0.0460
     24 C           0.0000    0.0000    0.0000 C.ar    1  UNL1        0.1475
     25 F           0.0000    0.0000    0.0000 F       1  UNL1       -0.2039
     26 C           0.0000    0.0000    0.0000 C.ar    1  UNL1        0.1030
@<TRIPOS>BOND
     1     1     2    2
     2     2     3   ar
     3     3     4   ar
     4     4     5    1
     5     5     6    1
     6     6     7    1
     7     7     8    1
     8     8     9    1
     9     9    10    1
    10    10    11    1
    11    11    12    1
    12     7    12    1
    13     4    13   ar
    14    13    14   ar
    15    14    15   ar
    16    15    16   ar
    17    16    17    1
    18    17    18    1
    19    18    19    1
    20    19    20    1
    21    20    21    1
    22    21    22    1
    23    18    22    1
    24    16    23   ar
    25    23    24   ar
    26    24    25    1
    27    24    26   ar
    28     2    26   ar
    29    14    26   ar
