@<TRIPOS>MOLECULE
*****
 18 20 0 0 0
SMALL
GASTEIGER

@<TRIPOS>ATOM
      1 O           0.0000    0.0000    0.0000 O.2     1  UNL1       -0.2445
      2 C           0.0000    0.0000    0.0000 C.ar    1  UNL1        0.3457
      3 O           0.0000    0.0000    0.0000 O.2     1  UNL1       -0.4209
      4 C           0.0000    0.0000    0.0000 C.ar    1  UNL1        0.1519
      5 C           0.0000    0.0000    0.0000 C.ar    1  UNL1        0.0796
      6 C           0.0000    0.0000    0.0000 C.ar    1  UNL1        0.1988
      7 O           0.0000    0.0000    0.0000 O.3     1  UNL1       -0.2865
      8 C           0.0000    0.0000    0.0000 C.ar    1  UNL1        0.0422
      9 C           0.0000    0.0000    0.0000 C.ar    1  UNL1        0.0063
     10 C           0.0000    0.0000    0.0000 C.ar    1  UNL1        0.0351
     11 C           0.0000    0.0000    0.0000 C.ar    1  UNL1        0.0095
     12 C           0.0000    0.0000    0.0000 C.ar    1  UNL1        0.0761
     13 C           0.0000    0.0000    0.0000 C.ar    1  UNL1        0.0062
     14 C           0.0000    0.0000    0.0000 C.ar    1  UNL1        0.0002
     15 C           0.0000    0.0000    0.0000 C.ar    1  UNL1        0.0000
     16 C           0.0000    0.0000    0.0000 C.ar    1  UNL1        0.0000
     17 C           0.0000    0.0000    0.0000 C.ar    1  UNL1        0.0000
     18 C           0.0000    0.0000    0.0000 C.ar    1  UNL1        0.0002
@<TRIPOS>BOND
     1     1     2    2
     2     2     3   ar
     3     3     4   ar
     4     4     5   ar
     5     5     6   ar
     6     6     7    1
     7     6     8   ar
     8     8     9   ar
     9     9    10   ar
    10     4    10   ar
    11    10    11   ar
    12    11    12   ar
    13     2    12   ar
    14    12    13    1
    15    13    14   ar
    16    14    15   ar
    17    15    16   ar
    18    16    17   ar
    19    17    18   ar
    20    13    18   ar
