@<TRIPOS>MOLECULE
*****
 59 63 0 0 0
SMALL
GASTEIGER

@<TRIPOS>ATOM
      1 C           0.0000    0.0000    0.0000 C.3     1  UNL1        0.0948
      2 C           0.0000    0.0000    0.0000 C.2     1  UNL1        0.2262
      3 O           0.0000    0.0000    0.0000 O.2     1  UNL1       -0.2749
      4 N           0.0000    0.0000    0.0000 N.am    1  UNL1       -0.2772
      5 C           0.0000    0.0000    0.0000 C.3     1  UNL1        0.0952
      6 C           0.0000    0.0000    0.0000 C.3     1  UNL1        0.0413
      7 C           0.0000    0.0000    0.0000 C.3     1  UNL1        0.0776
      8 C           0.0000    0.0000    0.0000 C.3     1  UNL1        0.0221
      9 C           0.0000    0.0000    0.0000 C.3     1  UNL1        0.0310
     10 C           0.0000    0.0000    0.0000 C.3     1  UNL1        0.1535
     11 C           0.0000    0.0000    0.0000 C.2     1  UNL1        0.2598
     12 O           0.0000    0.0000    0.0000 O.2     1  UNL1       -0.2715
     13 N           0.0000    0.0000    0.0000 N.am    1  UNL1       -0.1964
     14 C           0.0000    0.0000    0.0000 C.3     1  UNL1        0.1733
     15 C           0.0000    0.0000    0.0000 C.3     1  UNL1        0.0408
     16 C           0.0000    0.0000    0.0000 C.3     1  UNL1        0.0908
     17 C           0.0000    0.0000    0.0000 C.2     1  UNL1        0.2608
     18 N           0.0000    0.0000    0.0000 N.am    1  UNL1       -0.0878
     19 O           0.0000    0.0000    0.0000 O.2     1  UNL1       -0.2717
     20 C           0.0000    0.0000    0.0000 C.2     1  UNL1        0.2618
     21 O           0.0000    0.0000    0.0000 O.2     1  UNL1       -0.2715
     22 N           0.0000    0.0000    0.0000 N.am    1  UNL1       -0.1967
     23 C           0.0000    0.0000    0.0000 C.3     1  UNL1        0.1397
     24 C           0.0000    0.0000    0.0000 C.ar    1  UNL1        0.0016
     25 C           0.0000    0.0000    0.0000 C.ar    1  UNL1       -0.0023
     26 C           0.0000    0.0000    0.0000 C.ar    1  UNL1       -0.0003
     27 C           0.0000    0.0000    0.0000 C.ar    1  UNL1       -0.0000
     28 C           0.0000    0.0000    0.0000 C.ar    1  UNL1       -0.0003
     29 C           0.0000    0.0000    0.0000 C.ar    1  UNL1       -0.0023
     30 C           0.0000    0.0000    0.0000 C.ar    1  UNL1        0.0016
     31 C           0.0000    0.0000    0.0000 C.ar    1  UNL1       -0.0023
     32 C           0.0000    0.0000    0.0000 C.ar    1  UNL1       -0.0003
     33 C           0.0000    0.0000    0.0000 C.ar    1  UNL1       -0.0000
     34 C           0.0000    0.0000    0.0000 C.ar    1  UNL1       -0.0003
     35 C           0.0000    0.0000    0.0000 C.ar    1  UNL1       -0.0023
     36 N           0.0000    0.0000    0.0000 N.am    1  UNL1       -0.2731
     37 C           0.0000    0.0000    0.0000 C.2     1  UNL1        0.2475
     38 O           0.0000    0.0000    0.0000 O.2     1  UNL1       -0.2729
     39 C           0.0000    0.0000    0.0000 C.3     1  UNL1        0.1912
     40 N           0.0000    0.0000    0.0000 N.am    1  UNL1       -0.1923
     41 C           0.0000    0.0000    0.0000 C.2     1  UNL1        0.2651
     42 O           0.0000    0.0000    0.0000 O.2     1  UNL1       -0.2684
     43 C           0.0000    0.0000    0.0000 C.2     1  UNL1        0.0552
     44 C           0.0000    0.0000    0.0000 C.2     1  UNL1       -0.0173
     45 C           0.0000    0.0000    0.0000 C.3     1  UNL1        0.0312
     46 C           0.0000    0.0000    0.0000 C.ar    1  UNL1       -0.0038
     47 C           0.0000    0.0000    0.0000 C.ar    1  UNL1       -0.0004
     48 C           0.0000    0.0000    0.0000 C.ar    1  UNL1        0.0014
     49 C           0.0000    0.0000    0.0000 C.ar    1  UNL1        0.0444
     50 C           0.0000    0.0000    0.0000 C.3     1  UNL1        0.3249
     51 F           0.0000    0.0000    0.0000 F       1  UNL1       -0.1920
     52 F           0.0000    0.0000    0.0000 F       1  UNL1       -0.1920
     53 P           0.0000    0.0000    0.0000 P.3     1  UNL1        0.1831
     54 O           0.0000    0.0000    0.0000 O.2     1  UNL1       -0.4543
     55 O           0.0000    0.0000    0.0000 O.3     1  UNL1       -0.3533
     56 O           0.0000    0.0000    0.0000 O.3     1  UNL1       -0.3533
     57 C           0.0000    0.0000    0.0000 C.ar    1  UNL1        0.0014
     58 C           0.0000    0.0000    0.0000 C.ar    1  UNL1       -0.0004
     59 C           0.0000    0.0000    0.0000 C.3     1  UNL1        0.1243
@<TRIPOS>BOND
     1     1     2    1
     2     2     3    2
     3     2     4   am
     4     4     5    1
     5     5     6    1
     6     6     7    1
     7     7     8    1
     8     8     9    1
     9     9    10    1
    10    10    11    1
    11    11    12    2
    12    11    13   am
    13    13    14    1
    14    14    15    1
    15    15    16    1
    16    16    17    1
    17    17    18   am
    18    17    19    2
    19    14    20    1
    20    20    21    2
    21    20    22   am
    22    22    23    1
    23    23    24    1
    24    24    25   ar
    25    25    26   ar
    26    26    27   ar
    27    27    28   ar
    28    28    29   ar
    29    24    29   ar
    30    23    30    1
    31    30    31   ar
    32    31    32   ar
    33    32    33   ar
    34    33    34   ar
    35    34    35   ar
    36    30    35   ar
    37    10    36    1
    38     7    36    1
    39    36    37   am
    40    37    38    2
    41    37    39    1
    42    39    40    1
    43    40    41   am
    44    41    42    2
    45    41    43    1
    46    43    44    2
    47    44    45    1
    48    44    46    1
    49    46    47   ar
    50    47    48   ar
    51    48    49   ar
    52    49    50    1
    53    50    51    1
    54    50    52    1
    55    50    53    1
    56    53    54    2
    57    53    55    1
    58    53    56    1
    59    49    57   ar
    60    57    58   ar
    61    46    58   ar
    62    39    59    1
    63     4    59    1
