@<TRIPOS>MOLECULE
*****
 25 27 0 0 0
SMALL
GASTEIGER

@<TRIPOS>ATOM
      1 C           0.0000    0.0000    0.0000 C.3     1  UNL1        0.0968
      2 C           0.0000    0.0000    0.0000 C.2     1  UNL1        0.2461
      3 O           0.0000    0.0000    0.0000 O.2     1  UNL1       -0.2730
      4 N           0.0000    0.0000    0.0000 N.am    1  UNL1       -0.1792
      5 C           0.0000    0.0000    0.0000 C.ar    1  UNL1        0.0734
      6 C           0.0000    0.0000    0.0000 C.ar    1  UNL1        0.0167
      7 C           0.0000    0.0000    0.0000 C.ar    1  UNL1        0.0059
      8 C           0.0000    0.0000    0.0000 C.ar    1  UNL1        0.0555
      9 C           0.0000    0.0000    0.0000 C.2     1  UNL1        0.2690
     10 O           0.0000    0.0000    0.0000 O.2     1  UNL1       -0.2680
     11 N           0.0000    0.0000    0.0000 N.am    1  UNL1       -0.1741
     12 C           0.0000    0.0000    0.0000 C.ar    1  UNL1        0.0904
     13 C           0.0000    0.0000    0.0000 C.ar    1  UNL1        0.0185
     14 C           0.0000    0.0000    0.0000 C.ar    1  UNL1        0.0074
     15 C           0.0000    0.0000    0.0000 C.ar    1  UNL1        0.0295
     16 C           0.0000    0.0000    0.0000 C.ar    1  UNL1        0.0070
     17 C           0.0000    0.0000    0.0000 C.ar    1  UNL1        0.0075
     18 C           0.0000    0.0000    0.0000 C.ar    1  UNL1        0.0354
     19 S           0.0000    0.0000    0.0000 S.2     1  UNL1       -0.0864
     20 C           0.0000    0.0000    0.0000 C.ar    1  UNL1        0.0020
     21 C           0.0000    0.0000    0.0000 C.ar    1  UNL1        0.0194
     22 C           0.0000    0.0000    0.0000 C.ar    1  UNL1        0.1043
     23 N           0.0000    0.0000    0.0000 N.pl3   1  UNL1       -0.1267
     24 C           0.0000    0.0000    0.0000 C.ar    1  UNL1        0.0059
     25 C           0.0000    0.0000    0.0000 C.ar    1  UNL1        0.0167
@<TRIPOS>BOND
     1     1     2    1
     2     2     3    2
     3     2     4   am
     4     4     5    1
     5     5     6   ar
     6     6     7   ar
     7     7     8   ar
     8     8     9    1
     9     9    10    2
    10     9    11   am
    11    11    12    1
    12    12    13   ar
    13    13    14   ar
    14    14    15    1
    15    15    16   ar
    16    16    17   ar
    17    17    18   ar
    18    18    19   ar
    19    15    19   ar
    20    14    20   ar
    21    20    21   ar
    22    21    22   ar
    23    12    22   ar
    24    22    23    1
    25     8    24   ar
    26    24    25   ar
    27     5    25   ar
