@<TRIPOS>MOLECULE
*****
 23 25 0 0 0
SMALL
GASTEIGER

@<TRIPOS>ATOM
      1 C           0.0000    0.0000    0.0000 C.3     1  UNL1        0.0897
      2 N           0.0000    0.0000    0.0000 N.3     1  UNL1       -0.2697
      3 C           0.0000    0.0000    0.0000 C.3     1  UNL1        0.0939
      4 C           0.0000    0.0000    0.0000 C.3     1  UNL1        0.1088
      5 N           0.0000    0.0000    0.0000 N.pl3   1  UNL1       -0.2356
      6 C           0.0000    0.0000    0.0000 C.ar    1  UNL1        0.0970
      7 C           0.0000    0.0000    0.0000 C.ar    1  UNL1        0.1083
      8 BR          0.0000    0.0000    0.0000 Br      1  UNL1       -0.0426
      9 C           0.0000    0.0000    0.0000 C.ar    1  UNL1        0.2839
     10 O           0.0000    0.0000    0.0000 O.2     1  UNL1       -0.2649
     11 N           0.0000    0.0000    0.0000 N.ar    1  UNL1       -0.2141
     12 C           0.0000    0.0000    0.0000 C.3     1  UNL1        0.1571
     13 N           0.0000    0.0000    0.0000 N.ar    1  UNL1       -0.1638
     14 C           0.0000    0.0000    0.0000 C.ar    1  UNL1        0.1369
     15 C           0.0000    0.0000    0.0000 C.3     1  UNL1        0.0287
     16 C           0.0000    0.0000    0.0000 C.3     1  UNL1        0.0401
     17 C           0.0000    0.0000    0.0000 C.ar    1  UNL1       -0.0211
     18 C           0.0000    0.0000    0.0000 C.ar    1  UNL1       -0.0042
     19 C           0.0000    0.0000    0.0000 C.ar    1  UNL1       -0.0003
     20 C           0.0000    0.0000    0.0000 C.ar    1  UNL1       -0.0000
     21 C           0.0000    0.0000    0.0000 C.ar    1  UNL1       -0.0003
     22 C           0.0000    0.0000    0.0000 C.ar    1  UNL1       -0.0042
     23 C           0.0000    0.0000    0.0000 C.3     1  UNL1        0.0766
@<TRIPOS>BOND
     1     1     2    1
     2     2     3    1
     3     3     4    1
     4     4     5    1
     5     5     6    1
     6     6     7   ar
     7     7     8    1
     8     7     9   ar
     9     9    10    2
    10     9    11   ar
    11    11    12    1
    12    11    13   ar
    13    13    14   ar
    14     6    14   ar
    15     4    15    1
    16    15    16    1
    17    16    17    1
    18    17    18   ar
    19    18    19   ar
    20    19    20   ar
    21    20    21   ar
    22    21    22   ar
    23    17    22   ar
    24    16    23    1
    25     2    23    1
