@<TRIPOS>MOLECULE
*****
 26 27 0 0 0
SMALL
GASTEIGER

@<TRIPOS>ATOM
      1 C           0.0000    0.0000    0.0000 C.3     1  UNL1        0.0320
      2 C           0.0000    0.0000    0.0000 C.2     1  UNL1       -0.0109
      3 C           0.0000    0.0000    0.0000 C.2     1  UNL1        0.0490
      4 C           0.0000    0.0000    0.0000 C.2     1  UNL1        0.0146
      5 C           0.0000    0.0000    0.0000 C.2     1  UNL1        0.0013
      6 N           0.0000    0.0000    0.0000 N.am    1  UNL1       -0.2650
      7 C           0.0000    0.0000    0.0000 C.2     1  UNL1        0.1517
      8 S           0.0000    0.0000    0.0000 S.2     1  UNL1       -0.0174
      9 N           0.0000    0.0000    0.0000 N.am    1  UNL1       -0.2184
     10 C           0.0000    0.0000    0.0000 C.ar    1  UNL1        0.0597
     11 C           0.0000    0.0000    0.0000 C.ar    1  UNL1        0.0160
     12 C           0.0000    0.0000    0.0000 C.ar    1  UNL1        0.0115
     13 C           0.0000    0.0000    0.0000 C.ar    1  UNL1        0.0724
     14 C           0.0000    0.0000    0.0000 C.1     1  UNL1        0.1004
     15 N           0.0000    0.0000    0.0000 N.1     1  UNL1       -0.1908
     16 C           0.0000    0.0000    0.0000 C.ar    1  UNL1        0.0823
     17 C           0.0000    0.0000    0.0000 C.3     1  UNL1        0.4192
     18 F           0.0000    0.0000    0.0000 F       1  UNL1       -0.1658
     19 F           0.0000    0.0000    0.0000 F       1  UNL1       -0.1658
     20 F           0.0000    0.0000    0.0000 F       1  UNL1       -0.1658
     21 C           0.0000    0.0000    0.0000 C.ar    1  UNL1        0.0198
     22 C           0.0000    0.0000    0.0000 C.2     1  UNL1        0.2507
     23 O           0.0000    0.0000    0.0000 O.2     1  UNL1       -0.2724
     24 C           0.0000    0.0000    0.0000 C.3     1  UNL1        0.1327
     25 C           0.0000    0.0000    0.0000 C.3     1  UNL1        0.0296
     26 C           0.0000    0.0000    0.0000 C.3     1  UNL1        0.0296
@<TRIPOS>BOND
     1     1     2    1
     2     2     3    2
     3     3     4    1
     4     4     5    2
     5     3     6    1
     6     6     7    1
     7     7     8    2
     8     7     9    1
     9     9    10    1
    10    10    11   ar
    11    11    12   ar
    12    12    13   ar
    13    13    14    1
    14    14    15    3
    15    13    16   ar
    16    16    17    1
    17    17    18    1
    18    17    19    1
    19    17    20    1
    20    16    21   ar
    21    10    21   ar
    22     9    22   am
    23    22    23    2
    24    22    24    1
    25     6    24    1
    26    24    25    1
    27    24    26    1
