@<TRIPOS>MOLECULE
*****
 35 37 0 0 0
SMALL
GASTEIGER

@<TRIPOS>ATOM
      1 C           0.0000    0.0000    0.0000 C.3     1  UNL1        0.1388
      2 N           0.0000    0.0000    0.0000 N.am    1  UNL1       -0.1998
      3 C           0.0000    0.0000    0.0000 C.2     1  UNL1        0.2648
      4 O           0.0000    0.0000    0.0000 O.2     1  UNL1       -0.2684
      5 C           0.0000    0.0000    0.0000 C.ar    1  UNL1        0.0551
      6 C           0.0000    0.0000    0.0000 C.ar    1  UNL1        0.0059
      7 C           0.0000    0.0000    0.0000 C.ar    1  UNL1        0.0168
      8 C           0.0000    0.0000    0.0000 C.ar    1  UNL1        0.0736
      9 N           0.0000    0.0000    0.0000 N.pl3   1  UNL1       -0.1776
     10 C           0.0000    0.0000    0.0000 C.ar    1  UNL1        0.2420
     11 N           0.0000    0.0000    0.0000 N.ar    1  UNL1       -0.2106
     12 C           0.0000    0.0000    0.0000 C.ar    1  UNL1        0.1086
     13 C           0.0000    0.0000    0.0000 C.ar    1  UNL1        0.1235
     14 C           0.0000    0.0000    0.0000 C.3     1  UNL1        0.4227
     15 F           0.0000    0.0000    0.0000 F       1  UNL1       -0.1657
     16 F           0.0000    0.0000    0.0000 F       1  UNL1       -0.1657
     17 F           0.0000    0.0000    0.0000 F       1  UNL1       -0.1657
     18 C           0.0000    0.0000    0.0000 C.ar    1  UNL1        0.1562
     19 N           0.0000    0.0000    0.0000 N.pl3   1  UNL1       -0.2136
     20 C           0.0000    0.0000    0.0000 C.3     1  UNL1        0.1621
     21 C           0.0000    0.0000    0.0000 C.ar    1  UNL1        0.1137
     22 N           0.0000    0.0000    0.0000 N.ar    1  UNL1       -0.2419
     23 C           0.0000    0.0000    0.0000 C.ar    1  UNL1        0.1193
     24 C           0.0000    0.0000    0.0000 C.ar    1  UNL1        0.1210
     25 N           0.0000    0.0000    0.0000 N.ar    1  UNL1       -0.2248
     26 C           0.0000    0.0000    0.0000 C.ar    1  UNL1        0.1654
     27 N           0.0000    0.0000    0.0000 N.pl3   1  UNL1       -0.1748
     28 C           0.0000    0.0000    0.0000 C.3     1  UNL1        0.1405
     29 S           0.0000    0.0000    0.0000 S.O2    1  UNL1        0.0600
     30 C           0.0000    0.0000    0.0000 C.3     1  UNL1        0.1999
     31 O           0.0000    0.0000    0.0000 O.2     1  UNL1       -0.1542
     32 O           0.0000    0.0000    0.0000 O.2     1  UNL1       -0.1542
     33 N           0.0000    0.0000    0.0000 N.ar    1  UNL1       -0.1958
     34 C           0.0000    0.0000    0.0000 C.ar    1  UNL1        0.0168
     35 C           0.0000    0.0000    0.0000 C.ar    1  UNL1        0.0059
@<TRIPOS>BOND
     1     1     2    1
     2     2     3   am
     3     3     4    2
     4     3     5    1
     5     5     6   ar
     6     6     7   ar
     7     7     8   ar
     8     8     9    1
     9     9    10    1
    10    10    11   ar
    11    11    12   ar
    12    12    13   ar
    13    13    14    1
    14    14    15    1
    15    14    16    1
    16    14    17    1
    17    13    18   ar
    18    18    19    1
    19    19    20    1
    20    20    21    1
    21    21    22   ar
    22    22    23   ar
    23    23    24   ar
    24    24    25   ar
    25    25    26   ar
    26    21    26   ar
    27    26    27    1
    28    27    28    1
    29    27    29    1
    30    29    30    1
    31    29    31    2
    32    29    32    2
    33    18    33   ar
    34    10    33   ar
    35     8    34   ar
    36    34    35   ar
    37     5    35   ar
