@<TRIPOS>MOLECULE
*****
 34 37 0 0 0
SMALL
GASTEIGER

@<TRIPOS>ATOM
      1 C           0.0000    0.0000    0.0000 C.3     1  UNL1        0.2525
      2 O           0.0000    0.0000    0.0000 O.3     1  UNL1       -0.4701
      3 C           0.0000    0.0000    0.0000 C.ar    1  UNL1        0.1551
      4 C           0.0000    0.0000    0.0000 C.ar    1  UNL1        0.0527
      5 C           0.0000    0.0000    0.0000 C.ar    1  UNL1        0.0510
      6 N           0.0000    0.0000    0.0000 N.pl3   1  UNL1       -0.3073
      7 C           0.0000    0.0000    0.0000 C.3     1  UNL1        0.0923
      8 C           0.0000    0.0000    0.0000 C.3     1  UNL1        0.0405
      9 C           0.0000    0.0000    0.0000 C.3     1  UNL1        0.0952
     10 N           0.0000    0.0000    0.0000 N.3     1  UNL1       -0.1328
     11 C           0.0000    0.0000    0.0000 C.3     1  UNL1        0.0405
     12 C           0.0000    0.0000    0.0000 C.3     1  UNL1        0.0923
     13 C           0.0000    0.0000    0.0000 C.ar    1  UNL1        0.0161
     14 C           0.0000    0.0000    0.0000 C.ar    1  UNL1        0.0210
     15 C           0.0000    0.0000    0.0000 C.ar    1  UNL1        0.1075
     16 N           0.0000    0.0000    0.0000 N.pl3   1  UNL1       -0.1745
     17 C           0.0000    0.0000    0.0000 C.ar    1  UNL1        0.2422
     18 N           0.0000    0.0000    0.0000 N.ar    1  UNL1       -0.2096
     19 C           0.0000    0.0000    0.0000 C.ar    1  UNL1        0.1161
     20 C           0.0000    0.0000    0.0000 C.ar    1  UNL1        0.1101
     21 CL          0.0000    0.0000    0.0000 Cl      1  UNL1       -0.0776
     22 C           0.0000    0.0000    0.0000 C.ar    1  UNL1        0.1668
     23 N           0.0000    0.0000    0.0000 N.pl3   1  UNL1       -0.1932
     24 C           0.0000    0.0000    0.0000 C.ar    1  UNL1        0.0748
     25 C           0.0000    0.0000    0.0000 C.ar    1  UNL1        0.0167
     26 C           0.0000    0.0000    0.0000 C.ar    1  UNL1        0.0013
     27 C           0.0000    0.0000    0.0000 C.ar    1  UNL1        0.0002
     28 C           0.0000    0.0000    0.0000 C.ar    1  UNL1        0.0041
     29 C           0.0000    0.0000    0.0000 C.ar    1  UNL1        0.0449
     30 P           0.0000    0.0000    0.0000 P.3     1  UNL1        0.1366
     31 C           0.0000    0.0000    0.0000 C.3     1  UNL1        0.0720
     32 C           0.0000    0.0000    0.0000 C.3     1  UNL1        0.0720
     33 O           0.0000    0.0000    0.0000 O.2     1  UNL1       -0.3148
     34 N           0.0000    0.0000    0.0000 N.ar    1  UNL1       -0.1945
@<TRIPOS>BOND
     1     1     2    1
     2     2     3    1
     3     3     4   ar
     4     4     5   ar
     5     5     6    1
     6     6     7    1
     7     7     8    1
     8     8     9    1
     9     9    10    1
    10     9    11    1
    11    11    12    1
    12     6    12    1
    13     5    13   ar
    14    13    14   ar
    15    14    15   ar
    16     3    15   ar
    17    15    16    1
    18    16    17    1
    19    17    18   ar
    20    18    19   ar
    21    19    20   ar
    22    20    21    1
    23    20    22   ar
    24    22    23    1
    25    23    24    1
    26    24    25   ar
    27    25    26   ar
    28    26    27   ar
    29    27    28   ar
    30    28    29   ar
    31    24    29   ar
    32    29    30    1
    33    30    31    1
    34    30    32    1
    35    30    33    2
    36    22    34   ar
    37    17    34   ar
