@<TRIPOS>MOLECULE
*****
 28 31 0 0 0
SMALL
GASTEIGER

@<TRIPOS>ATOM
      1 C           0.0000    0.0000    0.0000 C.3     1  UNL1        0.0948
      2 C           0.0000    0.0000    0.0000 C.2     1  UNL1        0.2262
      3 O           0.0000    0.0000    0.0000 O.2     1  UNL1       -0.2749
      4 N           0.0000    0.0000    0.0000 N.am    1  UNL1       -0.2767
      5 C           0.0000    0.0000    0.0000 C.3     1  UNL1        0.1107
      6 C           0.0000    0.0000    0.0000 C.3     1  UNL1        0.0939
      7 N           0.0000    0.0000    0.0000 N.3     1  UNL1       -0.2711
      8 C           0.0000    0.0000    0.0000 C.3     1  UNL1        0.0577
      9 C           0.0000    0.0000    0.0000 C.3     1  UNL1        0.0177
     10 C           0.0000    0.0000    0.0000 C.3     1  UNL1        0.0230
     11 C           0.0000    0.0000    0.0000 C.3     1  UNL1        0.0942
     12 N           0.0000    0.0000    0.0000 N.pl3   1  UNL1       -0.2208
     13 C           0.0000    0.0000    0.0000 C.ar    1  UNL1        0.1667
     14 N           0.0000    0.0000    0.0000 N.ar    1  UNL1       -0.2046
     15 C           0.0000    0.0000    0.0000 C.ar    1  UNL1        0.2211
     16 N           0.0000    0.0000    0.0000 N.ar    1  UNL1       -0.1422
     17 N           0.0000    0.0000    0.0000 N.ar    1  UNL1       -0.2243
     18 C           0.0000    0.0000    0.0000 C.ar    1  UNL1        0.1002
     19 C           0.0000    0.0000    0.0000 C.ar    1  UNL1        0.0180
     20 C           0.0000    0.0000    0.0000 C.ar    1  UNL1       -0.0005
     21 C           0.0000    0.0000    0.0000 C.3     1  UNL1        0.0240
     22 C           0.0000    0.0000    0.0000 C.3     1  UNL1        0.0047
     23 C           0.0000    0.0000    0.0000 C.3     1  UNL1        0.0047
     24 C           0.0000    0.0000    0.0000 C.ar    1  UNL1        0.1118
     25 C           0.0000    0.0000    0.0000 C.3     1  UNL1        0.0230
     26 C           0.0000    0.0000    0.0000 C.3     1  UNL1        0.0177
     27 C           0.0000    0.0000    0.0000 C.3     1  UNL1        0.0939
     28 C           0.0000    0.0000    0.0000 C.3     1  UNL1        0.1107
@<TRIPOS>BOND
     1     1     2    1
     2     2     3    2
     3     2     4   am
     4     4     5    1
     5     5     6    1
     6     6     7    1
     7     7     8    1
     8     8     9    1
     9     9    10    1
    10    10    11    1
    11    11    12    1
    12    12    13    1
    13    13    14   ar
    14    14    15   ar
    15    15    16   ar
    16    16    17   ar
    17    17    18   ar
    18    18    19   ar
    19    19    20   ar
    20    20    21    1
    21    21    22    1
    22    21    23    1
    23    20    24   ar
    24    13    24   ar
    25    17    24   ar
    26    11    25    1
    27    25    26    1
    28     8    26    1
    29     7    27    1
    30    27    28    1
    31     4    28    1
