@<TRIPOS>MOLECULE
*****
 21 22 0 0 0
SMALL
GASTEIGER

@<TRIPOS>ATOM
      1 C           0.0000    0.0000    0.0000 C.3     1  UNL1        0.1394
      2 C           0.0000    0.0000    0.0000 C.2     1  UNL1        0.3808
      3 N           0.0000    0.0000    0.0000 N.2     1  UNL1       -0.0295
      4 C           0.0000    0.0000    0.0000 C.ar    1  UNL1        0.2237
      5 S           0.0000    0.0000    0.0000 S.2     1  UNL1       -0.0459
      6 C           0.0000    0.0000    0.0000 C.ar    1  UNL1        0.0073
      7 C           0.0000    0.0000    0.0000 C.3     1  UNL1        0.0379
      8 C           0.0000    0.0000    0.0000 C.ar    1  UNL1       -0.0141
      9 C           0.0000    0.0000    0.0000 C.3     1  UNL1        0.0314
     10 C           0.0000    0.0000    0.0000 C.ar    1  UNL1        0.0650
     11 C           0.0000    0.0000    0.0000 C.2     1  UNL1        0.1066
     12 N           0.0000    0.0000    0.0000 N.2     1  UNL1       -0.1479
     13 C           0.0000    0.0000    0.0000 C.ar    1  UNL1        0.0196
     14 C           0.0000    0.0000    0.0000 C.ar    1  UNL1        0.0024
     15 C           0.0000    0.0000    0.0000 C.ar    1  UNL1        0.0114
     16 C           0.0000    0.0000    0.0000 C.ar    1  UNL1        0.0577
     17 CL          0.0000    0.0000    0.0000 Cl      1  UNL1       -0.0822
     18 C           0.0000    0.0000    0.0000 C.ar    1  UNL1        0.0114
     19 C           0.0000    0.0000    0.0000 C.ar    1  UNL1        0.0024
     20 N           0.0000    0.0000    0.0000 N.2     1  UNL1        0.1046
     21 N           0.0000    0.0000    0.0000 N.2     1  UNL1        0.1179
@<TRIPOS>BOND
     1     1     2    1
     2     2     3    2
     3     3     4    1
     4     4     5   ar
     5     5     6   ar
     6     6     7    1
     7     6     8   ar
     8     8     9    1
     9     8    10   ar
    10     4    10   ar
    11    10    11    1
    12    11    12    2
    13    11    13    1
    14    13    14   ar
    15    14    15   ar
    16    15    16   ar
    17    16    17    1
    18    16    18   ar
    19    18    19   ar
    20    13    19   ar
    21     2    20    1
    22    20    21    2
