@<TRIPOS>MOLECULE
*****
 47 53 0 0 0
SMALL
GASTEIGER

@<TRIPOS>ATOM
      1 C           0.0000    0.0000    0.0000 C.3     1  UNL1        0.0897
      2 N           0.0000    0.0000    0.0000 N.3     1  UNL1       -0.2696
      3 C           0.0000    0.0000    0.0000 C.3     1  UNL1        0.0722
      4 C           0.0000    0.0000    0.0000 C.3     1  UNL1        0.0188
      5 C           0.0000    0.0000    0.0000 C.3     1  UNL1        0.0212
      6 C           0.0000    0.0000    0.0000 C.3     1  UNL1        0.1017
      7 C           0.0000    0.0000    0.0000 C.3     1  UNL1        0.2244
      8 O           0.0000    0.0000    0.0000 O.3     1  UNL1       -0.4452
      9 C           0.0000    0.0000    0.0000 C.ar    1  UNL1        0.3208
     10 N           0.0000    0.0000    0.0000 N.ar    1  UNL1       -0.1971
     11 C           0.0000    0.0000    0.0000 C.ar    1  UNL1        0.0823
     12 C           0.0000    0.0000    0.0000 C.ar    1  UNL1        0.0266
     13 C           0.0000    0.0000    0.0000 C.3     1  UNL1        0.0519
     14 C           0.0000    0.0000    0.0000 C.3     1  UNL1        0.0959
     15 N           0.0000    0.0000    0.0000 N.pl3   1  UNL1       -0.3020
     16 C           0.0000    0.0000    0.0000 C.ar    1  UNL1        0.0489
     17 C           0.0000    0.0000    0.0000 C.ar    1  UNL1        0.0146
     18 C           0.0000    0.0000    0.0000 C.ar    1  UNL1        0.0013
     19 C           0.0000    0.0000    0.0000 C.ar    1  UNL1        0.0001
     20 C           0.0000    0.0000    0.0000 C.ar    1  UNL1        0.0020
     21 C           0.0000    0.0000    0.0000 C.ar    1  UNL1        0.0001
     22 C           0.0000    0.0000    0.0000 C.ar    1  UNL1        0.0009
     23 C           0.0000    0.0000    0.0000 C.ar    1  UNL1        0.0114
     24 C           0.0000    0.0000    0.0000 C.ar    1  UNL1        0.0588
     25 CL          0.0000    0.0000    0.0000 Cl      1  UNL1       -0.0822
     26 C           0.0000    0.0000    0.0000 C.ar    1  UNL1        0.0239
     27 C           0.0000    0.0000    0.0000 C.3     1  UNL1        0.1371
     28 C           0.0000    0.0000    0.0000 C.ar    1  UNL1        0.1336
     29 N           0.0000    0.0000    0.0000 N.pl3   1  UNL1       -0.2899
     30 C           0.0000    0.0000    0.0000 C.3     1  UNL1        0.1137
     31 C           0.0000    0.0000    0.0000 C.3     1  UNL1        0.1152
     32 N           0.0000    0.0000    0.0000 N.am    1  UNL1       -0.2726
     33 C           0.0000    0.0000    0.0000 C.2     1  UNL1        0.2585
     34 O           0.0000    0.0000    0.0000 O.2     1  UNL1       -0.2692
     35 C           0.0000    0.0000    0.0000 C.2     1  UNL1        0.1176
     36 C           0.0000    0.0000    0.0000 C.1     1  UNL1        0.1047
     37 N           0.0000    0.0000    0.0000 N.1     1  UNL1       -0.1907
     38 C           0.0000    0.0000    0.0000 C.2     1  UNL1       -0.0116
     39 C           0.0000    0.0000    0.0000 C.3     1  UNL1        0.0229
     40 C           0.0000    0.0000    0.0000 C.3     1  UNL1        0.0047
     41 C           0.0000    0.0000    0.0000 C.3     1  UNL1        0.0047
     42 C           0.0000    0.0000    0.0000 C.3     1  UNL1        0.1105
     43 C           0.0000    0.0000    0.0000 C.3     1  UNL1        0.1269
     44 C           0.0000    0.0000    0.0000 C.1     1  UNL1        0.0750
     45 N           0.0000    0.0000    0.0000 N.1     1  UNL1       -0.1958
     46 C           0.0000    0.0000    0.0000 C.3     1  UNL1        0.1130
     47 N           0.0000    0.0000    0.0000 N.ar    1  UNL1       -0.1796
@<TRIPOS>BOND
     1     1     2    1
     2     2     3    1
     3     3     4    1
     4     4     5    1
     5     5     6    1
     6     2     6    1
     7     6     7    1
     8     7     8    1
     9     8     9    1
    10     9    10   ar
    11    10    11   ar
    12    11    12   ar
    13    12    13    1
    14    13    14    1
    15    14    15    1
    16    15    16    1
    17    16    17   ar
    18    17    18   ar
    19    18    19   ar
    20    19    20   ar
    21    20    21   ar
    22    21    22   ar
    23    22    23   ar
    24    23    24   ar
    25    24    25    1
    26    24    26   ar
    27    16    26   ar
    28    20    26   ar
    29    15    27    1
    30    11    27    1
    31    12    28   ar
    32    28    29    1
    33    29    30    1
    34    30    31    1
    35    31    32    1
    36    32    33   am
    37    33    34    2
    38    33    35    1
    39    35    36    1
    40    36    37    3
    41    35    38    2
    42    38    39    1
    43    39    40    1
    44    40    41    1
    45    39    41    1
    46    32    42    1
    47    42    43    1
    48    43    44    1
    49    44    45    3
    50    42    46    1
    51    29    46    1
    52    28    47   ar
    53     9    47   ar
