@<TRIPOS>MOLECULE
*****
 21 23 0 0 0
SMALL
GASTEIGER

@<TRIPOS>ATOM
      1 C           0.0000    0.0000    0.0000 C.3     1  UNL1        0.0018
      2 C           0.0000    0.0000    0.0000 C.3     1  UNL1        0.0197
      3 C           0.0000    0.0000    0.0000 C.3     1  UNL1        0.0728
      4 C           0.0000    0.0000    0.0000 C.3     1  UNL1        0.0215
      5 C           0.0000    0.0000    0.0000 C.3     1  UNL1        0.0226
      6 C           0.0000    0.0000    0.0000 C.3     1  UNL1        0.0205
      7 C           0.0000    0.0000    0.0000 C.3     1  UNL1        0.0888
      8 N           0.0000    0.0000    0.0000 N.3     1  UNL1       -0.2180
      9 C           0.0000    0.0000    0.0000 C.3     1  UNL1        0.0888
     10 C           0.0000    0.0000    0.0000 C.3     1  UNL1        0.0205
     11 C           0.0000    0.0000    0.0000 C.3     1  UNL1        0.0907
     12 N           0.0000    0.0000    0.0000 N.pl3   1  UNL1       -0.3091
     13 C           0.0000    0.0000    0.0000 C.ar    1  UNL1        0.0487
     14 C           0.0000    0.0000    0.0000 C.ar    1  UNL1        0.0153
     15 C           0.0000    0.0000    0.0000 C.ar    1  UNL1        0.0124
     16 C           0.0000    0.0000    0.0000 C.ar    1  UNL1        0.0791
     17 C           0.0000    0.0000    0.0000 C.1     1  UNL1        0.1013
     18 N           0.0000    0.0000    0.0000 N.1     1  UNL1       -0.1908
     19 C           0.0000    0.0000    0.0000 C.ar    1  UNL1        0.0685
     20 CL          0.0000    0.0000    0.0000 Cl      1  UNL1       -0.0815
     21 C           0.0000    0.0000    0.0000 C.ar    1  UNL1        0.0266
@<TRIPOS>BOND
     1     1     2    1
     2     2     3    1
     3     3     4    1
     4     4     5    1
     5     5     6    1
     6     6     7    1
     7     7     8    1
     8     8     9    1
     9     9    10    1
    10     5    10    1
    11     5    11    1
    12    11    12    1
    13     3    12    1
    14    12    13    1
    15    13    14   ar
    16    14    15   ar
    17    15    16   ar
    18    16    17    1
    19    17    18    3
    20    16    19   ar
    21    19    20    1
    22    19    21   ar
    23    13    21   ar
